data_image0
_cell_length_a       4.19067
_cell_length_b       6.68979
_cell_length_c       18.0697
_cell_angle_alpha    90
_cell_angle_beta     90
_cell_angle_gamma    90

_symmetry_space_group_name_H-M    "P 1"
_symmetry_int_tables_number       1

loop_
  _symmetry_equiv_pos_as_xyz
  'x, y, z'

loop_
  _atom_site_label
  _atom_site_occupancy
  _atom_site_fract_x
  _atom_site_fract_y
  _atom_site_fract_z
  _atom_site_thermal_displace_type
  _atom_site_B_iso_or_equiv
  _atom_site_type_symbol
  Ag1      1.0000 0.00000  0.00005  0.50020  Biso   1.000  Ag
  Br1      1.0000 0.50000  0.19222  0.58545  Biso   1.000  Br
  Br2      1.0000 0.00000  0.30778  0.41454  Biso   1.000  Br
  Ag2      1.0000 0.50000  0.49995  0.49980  Biso   1.000  Ag
  Br3      1.0000 0.00000  0.69158  0.58541  Biso   1.000  Br
  Br4      1.0000 0.50000  0.80843  0.41459  Biso   1.000  Br
