data_image0
_cell_length_a       4.43403
_cell_length_b       4.43823
_cell_length_c       18.8558
_cell_angle_alpha    90
_cell_angle_beta     90
_cell_angle_gamma    119.969

_symmetry_space_group_name_H-M    "P 1"
_symmetry_int_tables_number       1

loop_
  _symmetry_equiv_pos_as_xyz
  'x, y, z'

loop_
  _atom_site_label
  _atom_site_occupancy
  _atom_site_fract_x
  _atom_site_fract_y
  _atom_site_fract_z
  _atom_site_thermal_displace_type
  _atom_site_B_iso_or_equiv
  _atom_site_type_symbol
  Br1      1.0000 0.99985  0.00035  0.39816  Biso   1.000  Br
  Br2      1.0000 0.33348  0.66632  0.60189  Biso   1.000  Br
  Ag1      1.0000 0.99970  0.00055  0.54798  Biso   1.000  Ag
  Ag2      1.0000 0.33364  0.66611  0.45211  Biso   1.000  Ag
