data_image0
_cell_length_a       4.40028
_cell_length_b       4.41427
_cell_length_c       18.8558
_cell_angle_alpha    90
_cell_angle_beta     90
_cell_angle_gamma    119.895

_symmetry_space_group_name_H-M    "P 1"
_symmetry_int_tables_number       1

loop_
  _symmetry_equiv_pos_as_xyz
  'x, y, z'

loop_
  _atom_site_label
  _atom_site_occupancy
  _atom_site_fract_x
  _atom_site_fract_y
  _atom_site_fract_z
  _atom_site_thermal_displace_type
  _atom_site_B_iso_or_equiv
  _atom_site_type_symbol
  Cl1      1.0000 0.00086  0.00068  0.41289  Biso   1.000  Cl
  Cl2      1.0000 0.33248  0.66597  0.58721  Biso   1.000  Cl
  Ag1      1.0000 0.00010  0.00125  0.57080  Biso   1.000  Ag
  Ag2      1.0000 0.33324  0.66540  0.42923  Biso   1.000  Ag
