data_image0
_cell_length_a       6.79454
_cell_length_b       6.79454
_cell_length_c       18.2229
_cell_angle_alpha    90
_cell_angle_beta     90
_cell_angle_gamma    120

_symmetry_space_group_name_H-M    "P 1"
_symmetry_int_tables_number       1

loop_
  _symmetry_equiv_pos_as_xyz
  'x, y, z'

loop_
  _atom_site_label
  _atom_site_occupancy
  _atom_site_fract_x
  _atom_site_fract_y
  _atom_site_fract_z
  _atom_site_thermal_displace_type
  _atom_site_B_iso_or_equiv
  _atom_site_type_symbol
  Ag1      1.0000 0.66667  0.33333  0.50004  Biso   1.000  Ag
  Ag2      1.0000 0.33333  0.66667  0.49996  Biso   1.000  Ag
  Cl1      1.0000 0.50045  0.99991  0.41166  Biso   1.000  Cl
  Cl2      1.0000 0.49946  0.49955  0.41166  Biso   1.000  Cl
  Cl3      1.0000 0.00009  0.50054  0.41166  Biso   1.000  Cl
  Cl4      1.0000 0.50054  0.00009  0.58834  Biso   1.000  Cl
  Cl5      1.0000 0.49955  0.49946  0.58834  Biso   1.000  Cl
  Cl6      1.0000 0.99991  0.50045  0.58834  Biso   1.000  Cl
