data_image0
_cell_length_a       3.07818
_cell_length_b       4.16096
_cell_length_c       18.8558
_cell_angle_alpha    90
_cell_angle_beta     90
_cell_angle_gamma    111.709

_symmetry_space_group_name_H-M    "P 1"
_symmetry_int_tables_number       1

loop_
  _symmetry_equiv_pos_as_xyz
  'x, y, z'

loop_
  _atom_site_label
  _atom_site_occupancy
  _atom_site_fract_x
  _atom_site_fract_y
  _atom_site_fract_z
  _atom_site_thermal_displace_type
  _atom_site_B_iso_or_equiv
  _atom_site_type_symbol
  F1       1.0000 0.98556  0.89939  0.41666  Biso   1.000  F
  F2       1.0000 0.30932  0.78066  0.58273  Biso   1.000  F
  Ag1      1.0000 0.90772  0.24650  0.56529  Biso   1.000  Ag
  Ag2      1.0000 0.46529  0.40706  0.43546  Biso   1.000  Ag
