data_image0
_cell_length_a       4.575
_cell_length_b       4.57921
_cell_length_c       18.8558
_cell_angle_alpha    90
_cell_angle_beta     90
_cell_angle_gamma    119.97

_symmetry_space_group_name_H-M    "P 1"
_symmetry_int_tables_number       1

loop_
  _symmetry_equiv_pos_as_xyz
  'x, y, z'

loop_
  _atom_site_label
  _atom_site_occupancy
  _atom_site_fract_x
  _atom_site_fract_y
  _atom_site_fract_z
  _atom_site_thermal_displace_type
  _atom_site_B_iso_or_equiv
  _atom_site_type_symbol
  I1       1.0000 0.00012  0.00017  0.39009  Biso   1.000  I
  I2       1.0000 0.33322  0.66649  0.61001  Biso   1.000  I
  Ag1      1.0000 0.99986  0.00042  0.54400  Biso   1.000  Ag
  Ag2      1.0000 0.33348  0.66624  0.45604  Biso   1.000  Ag
