data_image0
_cell_length_a       4.39197
_cell_length_b       6.97494
_cell_length_c       18.4093
_cell_angle_alpha    90
_cell_angle_beta     90
_cell_angle_gamma    90

_symmetry_space_group_name_H-M    "P 1"
_symmetry_int_tables_number       1

loop_
  _symmetry_equiv_pos_as_xyz
  'x, y, z'

loop_
  _atom_site_label
  _atom_site_occupancy
  _atom_site_fract_x
  _atom_site_fract_y
  _atom_site_fract_z
  _atom_site_thermal_displace_type
  _atom_site_B_iso_or_equiv
  _atom_site_type_symbol
  Ag1      1.0000 0.00000  0.99986  0.49987  Biso   1.000  Ag
  I1       1.0000 0.50000  0.18506  0.59310  Biso   1.000  I
  I2       1.0000 0.00000  0.31494  0.40690  Biso   1.000  I
  Ag2      1.0000 0.50000  0.50014  0.50013  Biso   1.000  Ag
  I3       1.0000 0.00000  0.68573  0.59322  Biso   1.000  I
  I4       1.0000 0.50000  0.81427  0.40678  Biso   1.000  I
