data_image0
_cell_length_a       6.91225
_cell_length_b       6.91567
_cell_length_c       18.4116
_cell_angle_alpha    90
_cell_angle_beta     90
_cell_angle_gamma    119.984

_symmetry_space_group_name_H-M    "P 1"
_symmetry_int_tables_number       1

loop_
  _symmetry_equiv_pos_as_xyz
  'x, y, z'

loop_
  _atom_site_label
  _atom_site_occupancy
  _atom_site_fract_x
  _atom_site_fract_y
  _atom_site_fract_z
  _atom_site_thermal_displace_type
  _atom_site_B_iso_or_equiv
  _atom_site_type_symbol
  Ag1      1.0000 0.00007  0.00011  0.50019  Biso   1.000  Ag
  Ag2      1.0000 0.33327  0.66658  0.49983  Biso   1.000  Ag
  P1       1.0000 0.66661  0.33334  0.43728  Biso   1.000  P
  P2       1.0000 0.66673  0.33334  0.56272  Biso   1.000  P
  Te1      1.0000 0.32649  0.99368  0.39904  Biso   1.000  Te
  Te2      1.0000 0.00632  0.33293  0.39898  Biso   1.000  Te
  Te3      1.0000 0.66680  0.67328  0.39905  Biso   1.000  Te
  Te4      1.0000 0.00689  0.67293  0.60096  Biso   1.000  Te
  Te5      1.0000 0.32709  0.33387  0.60103  Biso   1.000  Te
  Te6      1.0000 0.66642  0.99335  0.60096  Biso   1.000  Te
