data_image0
_cell_length_a       6.17769
_cell_length_b       6.18053
_cell_length_c       18.4116
_cell_angle_alpha    90
_cell_angle_beta     90
_cell_angle_gamma    119.985

_symmetry_space_group_name_H-M    "P 1"
_symmetry_int_tables_number       1

loop_
  _symmetry_equiv_pos_as_xyz
  'x, y, z'

loop_
  _atom_site_label
  _atom_site_occupancy
  _atom_site_fract_x
  _atom_site_fract_y
  _atom_site_fract_z
  _atom_site_thermal_displace_type
  _atom_site_B_iso_or_equiv
  _atom_site_type_symbol
  Ag1      1.0000 0.00007  0.00009  0.50005  Biso   1.000  Ag
  Ag2      1.0000 0.33327  0.66660  0.49999  Biso   1.000  Ag
  P1       1.0000 0.66655  0.33331  0.43889  Biso   1.000  P
  P2       1.0000 0.66679  0.33337  0.56111  Biso   1.000  P
  S1       1.0000 0.34965  0.01657  0.40863  Biso   1.000  S
  S2       1.0000 0.98332  0.33319  0.40857  Biso   1.000  S
  S3       1.0000 0.66648  0.65005  0.40863  Biso   1.000  S
  S4       1.0000 0.98377  0.65003  0.59137  Biso   1.000  S
  S5       1.0000 0.35010  0.33364  0.59142  Biso   1.000  S
  S6       1.0000 0.66670  0.01655  0.59136  Biso   1.000  S
