data_image0
_cell_length_a       4.18076
_cell_length_b       4.18574
_cell_length_c       18.8558
_cell_angle_alpha    90
_cell_angle_beta     90
_cell_angle_gamma    119.961

_symmetry_space_group_name_H-M    "P 1"
_symmetry_int_tables_number       1

loop_
  _symmetry_equiv_pos_as_xyz
  'x, y, z'

loop_
  _atom_site_label
  _atom_site_occupancy
  _atom_site_fract_x
  _atom_site_fract_y
  _atom_site_fract_z
  _atom_site_thermal_displace_type
  _atom_site_B_iso_or_equiv
  _atom_site_type_symbol
  S1       1.0000 0.00013  0.00030  0.41820  Biso   1.000  S
  S2       1.0000 0.33320  0.66637  0.58187  Biso   1.000  S
  Ag1      1.0000 0.99996  0.00044  0.55768  Biso   1.000  Ag
  Ag2      1.0000 0.33337  0.66622  0.44239  Biso   1.000  Ag
