data_image0
_cell_length_a       6.14936
_cell_length_b       6.37479
_cell_length_c       16.4737
_cell_angle_alpha    90
_cell_angle_beta     90
_cell_angle_gamma    90

_symmetry_space_group_name_H-M    "P 1"
_symmetry_int_tables_number       1

loop_
  _symmetry_equiv_pos_as_xyz
  'x, y, z'

loop_
  _atom_site_label
  _atom_site_occupancy
  _atom_site_fract_x
  _atom_site_fract_y
  _atom_site_fract_z
  _atom_site_thermal_displace_type
  _atom_site_B_iso_or_equiv
  _atom_site_type_symbol
  Ag1      1.0000 0.50000  0.00000  0.50000  Biso   1.000  Ag
  Ag2      1.0000 0.00000  0.50000  0.50000  Biso   1.000  Ag
  Se1      1.0000 0.10688  0.11173  0.45937  Biso   1.000  Se
  Se2      1.0000 0.60688  0.38827  0.54063  Biso   1.000  Se
  Se3      1.0000 0.89312  0.88827  0.54063  Biso   1.000  Se
  Se4      1.0000 0.39312  0.61173  0.45937  Biso   1.000  Se
