data_image0
_cell_length_a       3.56693
_cell_length_b       6.10613
_cell_length_c       17.4889
_cell_angle_alpha    90
_cell_angle_beta     90
_cell_angle_gamma    90

_symmetry_space_group_name_H-M    "P 1"
_symmetry_int_tables_number       1

loop_
  _symmetry_equiv_pos_as_xyz
  'x, y, z'

loop_
  _atom_site_label
  _atom_site_occupancy
  _atom_site_fract_x
  _atom_site_fract_y
  _atom_site_fract_z
  _atom_site_thermal_displace_type
  _atom_site_B_iso_or_equiv
  _atom_site_type_symbol
  Ag1      1.0000 0.00000  0.99990  0.49999  Biso   1.000  Ag
  S1       1.0000 0.00000  0.33025  0.56980  Biso   1.000  S
  Ag2      1.0000 0.50000  0.49995  0.50000  Biso   1.000  Ag
  S2       1.0000 0.00000  0.66968  0.43021  Biso   1.000  S
