data_image0
_cell_length_a       4.18091
_cell_length_b       4.18562
_cell_length_c       18.8558
_cell_angle_alpha    90
_cell_angle_beta     90
_cell_angle_gamma    119.963

_symmetry_space_group_name_H-M    "P 1"
_symmetry_int_tables_number       1

loop_
  _symmetry_equiv_pos_as_xyz
  'x, y, z'

loop_
  _atom_site_label
  _atom_site_occupancy
  _atom_site_fract_x
  _atom_site_fract_y
  _atom_site_fract_z
  _atom_site_thermal_displace_type
  _atom_site_B_iso_or_equiv
  _atom_site_type_symbol
  S1       1.0000 0.00010  0.00031  0.41821  Biso   1.000  S
  S2       1.0000 0.33324  0.66636  0.58186  Biso   1.000  S
  Ag1      1.0000 0.99994  0.00045  0.55764  Biso   1.000  Ag
  Ag2      1.0000 0.33339  0.66622  0.44243  Biso   1.000  Ag
