data_image0
_cell_length_a       6.60827
_cell_length_b       6.89624
_cell_length_c       16.6115
_cell_angle_alpha    90
_cell_angle_beta     90
_cell_angle_gamma    90

_symmetry_space_group_name_H-M    "P 1"
_symmetry_int_tables_number       1

loop_
  _symmetry_equiv_pos_as_xyz
  'x, y, z'

loop_
  _atom_site_label
  _atom_site_occupancy
  _atom_site_fract_x
  _atom_site_fract_y
  _atom_site_fract_z
  _atom_site_thermal_displace_type
  _atom_site_B_iso_or_equiv
  _atom_site_type_symbol
  Ag1      1.0000 0.50000  0.00000  0.50000  Biso   1.000  Ag
  Ag2      1.0000 0.00000  0.50000  0.50000  Biso   1.000  Ag
  Te1      1.0000 0.11883  0.12355  0.45493  Biso   1.000  Te
  Te2      1.0000 0.61883  0.37645  0.54507  Biso   1.000  Te
  Te3      1.0000 0.88117  0.87645  0.54507  Biso   1.000  Te
  Te4      1.0000 0.38117  0.62355  0.45493  Biso   1.000  Te
