data_image0
_cell_length_a       4.20238
_cell_length_b       4.20711
_cell_length_c       18.8558
_cell_angle_alpha    90
_cell_angle_beta     90
_cell_angle_gamma    119.963

_symmetry_space_group_name_H-M    "P 1"
_symmetry_int_tables_number       1

loop_
  _symmetry_equiv_pos_as_xyz
  'x, y, z'

loop_
  _atom_site_label
  _atom_site_occupancy
  _atom_site_fract_x
  _atom_site_fract_y
  _atom_site_fract_z
  _atom_site_thermal_displace_type
  _atom_site_B_iso_or_equiv
  _atom_site_type_symbol
  Te1      1.0000 0.00010  0.00015  0.38674  Biso   1.000  Te
  Te2      1.0000 0.33324  0.66651  0.61332  Biso   1.000  Te
  Ag1      1.0000 0.00001  0.00028  0.54170  Biso   1.000  Ag
  Ag2      1.0000 0.33332  0.66638  0.45837  Biso   1.000  Ag
