data_image0
_cell_length_a       7.29763
_cell_length_b       7.29763
_cell_length_c       18.5674
_cell_angle_alpha    90
_cell_angle_beta     90
_cell_angle_gamma    120

_symmetry_space_group_name_H-M    "P 1"
_symmetry_int_tables_number       1

loop_
  _symmetry_equiv_pos_as_xyz
  'x, y, z'

loop_
  _atom_site_label
  _atom_site_occupancy
  _atom_site_fract_x
  _atom_site_fract_y
  _atom_site_fract_z
  _atom_site_thermal_displace_type
  _atom_site_B_iso_or_equiv
  _atom_site_type_symbol
  Al1      1.0000 0.66667  0.33333  0.49999  Biso   1.000  Al
  Al2      1.0000 0.33333  0.66667  0.50001  Biso   1.000  Al
  I1       1.0000 0.40811  0.00001  0.40393  Biso   1.000  I
  I2       1.0000 0.59190  0.59189  0.40393  Biso   1.000  I
  I3       1.0000 0.99999  0.40810  0.40393  Biso   1.000  I
  I4       1.0000 0.40810  0.99999  0.59607  Biso   1.000  I
  I5       1.0000 0.59189  0.59190  0.59607  Biso   1.000  I
  I6       1.0000 0.00001  0.40811  0.59607  Biso   1.000  I
