data_image0
_cell_length_a       2.97615
_cell_length_b       2.97615
_cell_length_c       18.9587
_cell_angle_alpha    90
_cell_angle_beta     90
_cell_angle_gamma    120

_symmetry_space_group_name_H-M    "P 1"
_symmetry_int_tables_number       1

loop_
  _symmetry_equiv_pos_as_xyz
  'x, y, z'

loop_
  _atom_site_label
  _atom_site_occupancy
  _atom_site_fract_x
  _atom_site_fract_y
  _atom_site_fract_z
  _atom_site_thermal_displace_type
  _atom_site_B_iso_or_equiv
  _atom_site_type_symbol
  Al1      1.0000 0.66667  0.33333  0.43084  Biso   1.000  Al
  Al2      1.0000 0.66667  0.33333  0.56916  Biso   1.000  Al
  O1       1.0000 0.33333  0.66667  0.39560  Biso   1.000  O
  O2       1.0000 0.33333  0.66667  0.60440  Biso   1.000  O
