data_image0
_cell_length_a       6.9134
_cell_length_b       6.91514
_cell_length_c       18.4116
_cell_angle_alpha    90
_cell_angle_beta     90
_cell_angle_gamma    119.992

_symmetry_space_group_name_H-M    "P 1"
_symmetry_int_tables_number       1

loop_
  _symmetry_equiv_pos_as_xyz
  'x, y, z'

loop_
  _atom_site_label
  _atom_site_occupancy
  _atom_site_fract_x
  _atom_site_fract_y
  _atom_site_fract_z
  _atom_site_thermal_displace_type
  _atom_site_B_iso_or_equiv
  _atom_site_type_symbol
  Al1      1.0000 0.00001  0.00001  0.50001  Biso   1.000  Al
  Al2      1.0000 0.33333  0.66668  0.49997  Biso   1.000  Al
  P1       1.0000 0.66665  0.33337  0.43785  Biso   1.000  P
  P2       1.0000 0.66669  0.33331  0.56229  Biso   1.000  P
  Te1      1.0000 0.29835  0.96496  0.40488  Biso   1.000  Te
  Te2      1.0000 0.03486  0.33325  0.40490  Biso   1.000  Te
  Te3      1.0000 0.66668  0.70170  0.40488  Biso   1.000  Te
  Te4      1.0000 0.03520  0.70186  0.59509  Biso   1.000  Te
  Te5      1.0000 0.29833  0.33350  0.59508  Biso   1.000  Te
  Te6      1.0000 0.66659  0.96476  0.59510  Biso   1.000  Te
