data_image0
_cell_length_a       6.12782
_cell_length_b       6.13274
_cell_length_c       18.4116
_cell_angle_alpha    90
_cell_angle_beta     90
_cell_angle_gamma    119.973

_symmetry_space_group_name_H-M    "P 1"
_symmetry_int_tables_number       1

loop_
  _symmetry_equiv_pos_as_xyz
  'x, y, z'

loop_
  _atom_site_label
  _atom_site_occupancy
  _atom_site_fract_x
  _atom_site_fract_y
  _atom_site_fract_z
  _atom_site_thermal_displace_type
  _atom_site_B_iso_or_equiv
  _atom_site_type_symbol
  Al1      1.0000 0.00016  0.00008  0.49797  Biso   1.000  Al
  Al2      1.0000 0.33342  0.66668  0.49783  Biso   1.000  Al
  P1       1.0000 0.66663  0.33334  0.45842  Biso   1.000  P
  P2       1.0000 0.66643  0.33324  0.58286  Biso   1.000  P
  S1       1.0000 0.34732  0.01412  0.41584  Biso   1.000  S
  S2       1.0000 0.98610  0.33334  0.41585  Biso   1.000  S
  S3       1.0000 0.66646  0.65245  0.41583  Biso   1.000  S
  S4       1.0000 0.04791  0.71452  0.57141  Biso   1.000  S
  S5       1.0000 0.28577  0.33357  0.57148  Biso   1.000  S
  S6       1.0000 0.66648  0.95204  0.57141  Biso   1.000  S
