data_image0
_cell_length_a       6.48268
_cell_length_b       6.48753
_cell_length_c       18.4116
_cell_angle_alpha    90
_cell_angle_beta     90
_cell_angle_gamma    119.975

_symmetry_space_group_name_H-M    "P 1"
_symmetry_int_tables_number       1

loop_
  _symmetry_equiv_pos_as_xyz
  'x, y, z'

loop_
  _atom_site_label
  _atom_site_occupancy
  _atom_site_fract_x
  _atom_site_fract_y
  _atom_site_fract_z
  _atom_site_thermal_displace_type
  _atom_site_B_iso_or_equiv
  _atom_site_type_symbol
  Al1      1.0000 0.00010  0.00003  0.49710  Biso   1.000  Al
  Al2      1.0000 0.33342  0.66672  0.49707  Biso   1.000  Al
  P1       1.0000 0.66669  0.33333  0.45898  Biso   1.000  P
  P2       1.0000 0.66651  0.33329  0.58431  Biso   1.000  P
  Se1      1.0000 0.34267  0.00948  0.41057  Biso   1.000  Se
  Se2      1.0000 0.99076  0.33331  0.41059  Biso   1.000  Se
  Se3      1.0000 0.66653  0.65714  0.41057  Biso   1.000  Se
  Se4      1.0000 0.04930  0.71604  0.57694  Biso   1.000  Se
  Se5      1.0000 0.28412  0.33343  0.57698  Biso   1.000  Se
  Se6      1.0000 0.66659  0.95063  0.57694  Biso   1.000  Se
