data_image0
_cell_length_a       3.79222
_cell_length_b       3.79222
_cell_length_c       19.8993
_cell_angle_alpha    90
_cell_angle_beta     90
_cell_angle_gamma    120

_symmetry_space_group_name_H-M    "P 1"
_symmetry_int_tables_number       1

loop_
  _symmetry_equiv_pos_as_xyz
  'x, y, z'

loop_
  _atom_site_label
  _atom_site_occupancy
  _atom_site_fract_x
  _atom_site_fract_y
  _atom_site_fract_z
  _atom_site_thermal_displace_type
  _atom_site_B_iso_or_equiv
  _atom_site_type_symbol
  Al1      1.0000 0.33332  0.66663  0.56478  Biso   1.000  Al
  Se1      1.0000 0.66667  0.33331  0.37690  Biso   1.000  Se
  Se2      1.0000 0.99998  0.00000  0.62310  Biso   1.000  Se
  Al2      1.0000 0.33331  0.66664  0.43522  Biso   1.000  Al
