data_image0
_cell_length_a       3.07237
_cell_length_b       6.62141
_cell_length_c       18.2473
_cell_angle_alpha    90
_cell_angle_beta     90
_cell_angle_gamma    90

_symmetry_space_group_name_H-M    "P 1"
_symmetry_int_tables_number       1

loop_
  _symmetry_equiv_pos_as_xyz
  'x, y, z'

loop_
  _atom_site_label
  _atom_site_occupancy
  _atom_site_fract_x
  _atom_site_fract_y
  _atom_site_fract_z
  _atom_site_thermal_displace_type
  _atom_site_B_iso_or_equiv
  _atom_site_type_symbol
  Al1      1.0000 0.50000  0.00000  0.50000  Biso   1.000  Al
  Al2      1.0000 1.00000  0.50000  0.50000  Biso   1.000  Al
  Se1      1.0000 0.49980  0.30254  0.41204  Biso   1.000  Se
  Se2      1.0000 0.99985  0.19732  0.58799  Biso   1.000  Se
  Se3      1.0000 0.50020  0.69747  0.58796  Biso   1.000  Se
  Se4      1.0000 0.00015  0.80268  0.41201  Biso   1.000  Se
