data_image0
_cell_length_a       4.1323
_cell_length_b       4.13215
_cell_length_c       20.8073
_cell_angle_alpha    90
_cell_angle_beta     90
_cell_angle_gamma    120.001

_symmetry_space_group_name_H-M    "P 1"
_symmetry_int_tables_number       1

loop_
  _symmetry_equiv_pos_as_xyz
  'x, y, z'

loop_
  _atom_site_label
  _atom_site_occupancy
  _atom_site_fract_x
  _atom_site_fract_y
  _atom_site_fract_z
  _atom_site_thermal_displace_type
  _atom_site_B_iso_or_equiv
  _atom_site_type_symbol
  Al1      1.0000 0.33333  0.66667  0.56158  Biso   1.000  Al
  Te1      1.0000 0.66668  0.33334  0.37745  Biso   1.000  Te
  Te2      1.0000 0.99999  0.99999  0.62255  Biso   1.000  Te
  Al2      1.0000 0.33333  0.66666  0.43842  Biso   1.000  Al
