data_image0
_cell_length_a       3.80487
_cell_length_b       6.38551
_cell_length_c       18.5261
_cell_angle_alpha    90
_cell_angle_beta     90
_cell_angle_gamma    90

_symmetry_space_group_name_H-M    "P 1"
_symmetry_int_tables_number       1

loop_
  _symmetry_equiv_pos_as_xyz
  'x, y, z'

loop_
  _atom_site_label
  _atom_site_occupancy
  _atom_site_fract_x
  _atom_site_fract_y
  _atom_site_fract_z
  _atom_site_thermal_displace_type
  _atom_site_B_iso_or_equiv
  _atom_site_type_symbol
  Al1      1.0000 0.50000  1.00000  0.50000  Biso   1.000  Al
  Al2      1.0000 1.00000  0.50000  0.50000  Biso   1.000  Al
  Te1      1.0000 0.99987  0.16211  0.40524  Biso   1.000  Te
  Te2      1.0000 0.49988  0.33788  0.59476  Biso   1.000  Te
  Te3      1.0000 0.00013  0.83789  0.59476  Biso   1.000  Te
  Te4      1.0000 0.50012  0.66212  0.40524  Biso   1.000  Te
