data_image0
_cell_length_a       6.79434
_cell_length_b       6.79434
_cell_length_c       18.1186
_cell_angle_alpha    90
_cell_angle_beta     90
_cell_angle_gamma    120

_symmetry_space_group_name_H-M    "P 1"
_symmetry_int_tables_number       1

loop_
  _symmetry_equiv_pos_as_xyz
  'x, y, z'

loop_
  _atom_site_label
  _atom_site_occupancy
  _atom_site_fract_x
  _atom_site_fract_y
  _atom_site_fract_z
  _atom_site_thermal_displace_type
  _atom_site_B_iso_or_equiv
  _atom_site_type_symbol
  As1      1.0000 0.66667  0.33333  0.50017  Biso   1.000  As
  As2      1.0000 0.33333  0.66667  0.49983  Biso   1.000  As
  Br1      1.0000 0.64165  0.99978  0.41394  Biso   1.000  Br
  Br2      1.0000 0.35813  0.35835  0.41394  Biso   1.000  Br
  Br3      1.0000 0.00022  0.64187  0.41394  Biso   1.000  Br
  Br4      1.0000 0.35835  0.00022  0.58606  Biso   1.000  Br
  Br5      1.0000 0.64187  0.64165  0.58606  Biso   1.000  Br
  Br6      1.0000 0.99978  0.35813  0.58606  Biso   1.000  Br
