data_image0
_cell_length_a       5.77536
_cell_length_b       5.77536
_cell_length_c       15
_cell_angle_alpha    90
_cell_angle_beta     90
_cell_angle_gamma    60.0071

_symmetry_space_group_name_H-M    "P 1"
_symmetry_int_tables_number       1

loop_
  _symmetry_equiv_pos_as_xyz
  'x, y, z'

loop_
  _atom_site_label
  _atom_site_occupancy
  _atom_site_fract_x
  _atom_site_fract_y
  _atom_site_fract_z
  _atom_site_thermal_displace_type
  _atom_site_B_iso_or_equiv
  _atom_site_type_symbol
  C1       1.0000 0.97358  0.97358  0.50000  Biso   1.000  C
  As1      1.0000 0.16669  0.16669  0.50000  Biso   1.000  As
  C2       1.0000 0.55289  0.97353  0.50000  Biso   1.000  C
  C3       1.0000 0.97353  0.55289  0.50000  Biso   1.000  C
  C4       1.0000 0.69313  0.11378  0.50000  Biso   1.000  C
  C5       1.0000 0.11378  0.69313  0.50000  Biso   1.000  C
  As2      1.0000 0.49997  0.49997  0.50000  Biso   1.000  As
  C6       1.0000 0.69308  0.69308  0.50000  Biso   1.000  C
