data_image0
_cell_length_a       4.25272
_cell_length_b       4.25746
_cell_length_c       18.8558
_cell_angle_alpha    90
_cell_angle_beta     90
_cell_angle_gamma    119.963

_symmetry_space_group_name_H-M    "P 1"
_symmetry_int_tables_number       1

loop_
  _symmetry_equiv_pos_as_xyz
  'x, y, z'

loop_
  _atom_site_label
  _atom_site_occupancy
  _atom_site_fract_x
  _atom_site_fract_y
  _atom_site_fract_z
  _atom_site_thermal_displace_type
  _atom_site_B_iso_or_equiv
  _atom_site_type_symbol
  Br1      1.0000 0.99928  0.00095  0.38657  Biso   1.000  Br
  Br2      1.0000 0.33405  0.66572  0.61349  Biso   1.000  Br
  Au1      1.0000 0.00001  0.00040  0.53661  Biso   1.000  Au
  Au2      1.0000 0.33332  0.66627  0.46346  Biso   1.000  Au
