data_image0
_cell_length_a       4.36352
_cell_length_b       6.79134
_cell_length_c       17.9558
_cell_angle_alpha    90
_cell_angle_beta     90
_cell_angle_gamma    90

_symmetry_space_group_name_H-M    "P 1"
_symmetry_int_tables_number       1

loop_
  _symmetry_equiv_pos_as_xyz
  'x, y, z'

loop_
  _atom_site_label
  _atom_site_occupancy
  _atom_site_fract_x
  _atom_site_fract_y
  _atom_site_fract_z
  _atom_site_thermal_displace_type
  _atom_site_B_iso_or_equiv
  _atom_site_type_symbol
  Au1      1.0000 0.00000  0.00002  0.50031  Biso   1.000  Au
  Br1      1.0000 0.50000  0.20803  0.58475  Biso   1.000  Br
  Br2      1.0000 0.00000  0.29197  0.41525  Biso   1.000  Br
  Au2      1.0000 0.50000  0.49998  0.49969  Biso   1.000  Au
  Br3      1.0000 0.00000  0.70688  0.58472  Biso   1.000  Br
  Br4      1.0000 0.50000  0.79312  0.41528  Biso   1.000  Br
