data_image0
_cell_length_a       4.44315
_cell_length_b       4.44419
_cell_length_c       18.8558
_cell_angle_alpha    90
_cell_angle_beta     90
_cell_angle_gamma    119.992

_symmetry_space_group_name_H-M    "P 1"
_symmetry_int_tables_number       1

loop_
  _symmetry_equiv_pos_as_xyz
  'x, y, z'

loop_
  _atom_site_label
  _atom_site_occupancy
  _atom_site_fract_x
  _atom_site_fract_y
  _atom_site_fract_z
  _atom_site_thermal_displace_type
  _atom_site_B_iso_or_equiv
  _atom_site_type_symbol
  I1       1.0000 0.99988  0.00016  0.38381  Biso   1.000  I
  I2       1.0000 0.33345  0.66651  0.61626  Biso   1.000  I
  Au1      1.0000 0.99980  0.00026  0.53587  Biso   1.000  Au
  Au2      1.0000 0.33354  0.66641  0.46420  Biso   1.000  Au
