data_image0
_cell_length_a       3.12607
_cell_length_b       6.0674
_cell_length_c       17.011
_cell_angle_alpha    90
_cell_angle_beta     90
_cell_angle_gamma    90

_symmetry_space_group_name_H-M    "P 1"
_symmetry_int_tables_number       1

loop_
  _symmetry_equiv_pos_as_xyz
  'x, y, z'

loop_
  _atom_site_label
  _atom_site_occupancy
  _atom_site_fract_x
  _atom_site_fract_y
  _atom_site_fract_z
  _atom_site_thermal_displace_type
  _atom_site_B_iso_or_equiv
  _atom_site_type_symbol
  Au1      1.0000 0.00000  0.99995  0.50000  Biso   1.000  Au
  O1       1.0000 0.00000  0.31423  0.54335  Biso   1.000  O
  Au2      1.0000 0.50000  0.49995  0.50000  Biso   1.000  Au
  O2       1.0000 0.00000  0.68566  0.45665  Biso   1.000  O
