data_image0
_cell_length_a       3.61534
_cell_length_b       3.61534
_cell_length_c       18.5658
_cell_angle_alpha    90
_cell_angle_beta     90
_cell_angle_gamma    120

_symmetry_space_group_name_H-M    "P 1"
_symmetry_int_tables_number       1

loop_
  _symmetry_equiv_pos_as_xyz
  'x, y, z'

loop_
  _atom_site_label
  _atom_site_occupancy
  _atom_site_fract_x
  _atom_site_fract_y
  _atom_site_fract_z
  _atom_site_thermal_displace_type
  _atom_site_B_iso_or_equiv
  _atom_site_type_symbol
  Au1      1.0000 0.66667  0.33333  0.41911  Biso   1.000  Au
  Au2      1.0000 0.66667  0.33333  0.58089  Biso   1.000  Au
  O1       1.0000 0.33333  0.66667  0.40609  Biso   1.000  O
  O2       1.0000 0.33333  0.66667  0.59391  Biso   1.000  O
