data_image0
_cell_length_a       6.28495
_cell_length_b       6.70837
_cell_length_c       18.4116
_cell_angle_alpha    90
_cell_angle_beta     90
_cell_angle_gamma    117.933

_symmetry_space_group_name_H-M    "P 1"
_symmetry_int_tables_number       1

loop_
  _symmetry_equiv_pos_as_xyz
  'x, y, z'

loop_
  _atom_site_label
  _atom_site_occupancy
  _atom_site_fract_x
  _atom_site_fract_y
  _atom_site_fract_z
  _atom_site_thermal_displace_type
  _atom_site_B_iso_or_equiv
  _atom_site_type_symbol
  Au1      1.0000 0.98178  0.01679  0.50540  Biso   1.000  Au
  Au2      1.0000 0.35161  0.64989  0.49458  Biso   1.000  Au
  P1       1.0000 0.63423  0.29900  0.43850  Biso   1.000  P
  P2       1.0000 0.69889  0.36756  0.56151  Biso   1.000  P
  Se1      1.0000 0.29315  0.97033  0.42123  Biso   1.000  Se
  Se2      1.0000 0.93842  0.26018  0.39773  Biso   1.000  Se
  Se3      1.0000 0.60916  0.59044  0.39429  Biso   1.000  Se
  Se4      1.0000 0.03988  0.69634  0.57869  Biso   1.000  Se
  Se5      1.0000 0.39465  0.40627  0.60228  Biso   1.000  Se
  Se6      1.0000 0.72501  0.07663  0.60572  Biso   1.000  Se
