data_image0
_cell_length_a       6.92786
_cell_length_b       6.93226
_cell_length_c       18.4116
_cell_angle_alpha    90
_cell_angle_beta     90
_cell_angle_gamma    119.979

_symmetry_space_group_name_H-M    "P 1"
_symmetry_int_tables_number       1

loop_
  _symmetry_equiv_pos_as_xyz
  'x, y, z'

loop_
  _atom_site_label
  _atom_site_occupancy
  _atom_site_fract_x
  _atom_site_fract_y
  _atom_site_fract_z
  _atom_site_thermal_displace_type
  _atom_site_B_iso_or_equiv
  _atom_site_type_symbol
  Au1      1.0000 0.00009  0.00021  0.50023  Biso   1.000  Au
  Au2      1.0000 0.33325  0.66647  0.49977  Biso   1.000  Au
  P1       1.0000 0.66651  0.33329  0.43683  Biso   1.000  P
  P2       1.0000 0.66683  0.33339  0.56319  Biso   1.000  P
  Te1      1.0000 0.32358  0.99099  0.40133  Biso   1.000  Te
  Te2      1.0000 0.00866  0.33267  0.40113  Biso   1.000  Te
  Te3      1.0000 0.66648  0.67575  0.40126  Biso   1.000  Te
  Te4      1.0000 0.00986  0.67562  0.59868  Biso   1.000  Te
  Te5      1.0000 0.32474  0.33418  0.59887  Biso   1.000  Te
  Te6      1.0000 0.66669  0.99082  0.59874  Biso   1.000  Te
