data_image0
_cell_length_a       3.99752
_cell_length_b       3.99752
_cell_length_c       19.0556
_cell_angle_alpha    90
_cell_angle_beta     90
_cell_angle_gamma    120

_symmetry_space_group_name_H-M    "P 1"
_symmetry_int_tables_number       1

loop_
  _symmetry_equiv_pos_as_xyz
  'x, y, z'

loop_
  _atom_site_label
  _atom_site_occupancy
  _atom_site_fract_x
  _atom_site_fract_y
  _atom_site_fract_z
  _atom_site_thermal_displace_type
  _atom_site_B_iso_or_equiv
  _atom_site_type_symbol
  Au1      1.0000 0.33479  0.66952  0.57882  Biso   1.000  Au
  S1       1.0000 0.66883  0.33757  0.39358  Biso   1.000  S
  S2       1.0000 0.00141  0.00291  0.60642  Biso   1.000  S
  Au2      1.0000 0.33545  0.67096  0.42118  Biso   1.000  Au
