data_image0
_cell_length_a       4.15061
_cell_length_b       4.15061
_cell_length_c       19.3175
_cell_angle_alpha    90
_cell_angle_beta     90
_cell_angle_gamma    120

_symmetry_space_group_name_H-M    "P 1"
_symmetry_int_tables_number       1

loop_
  _symmetry_equiv_pos_as_xyz
  'x, y, z'

loop_
  _atom_site_label
  _atom_site_occupancy
  _atom_site_fract_x
  _atom_site_fract_y
  _atom_site_fract_z
  _atom_site_thermal_displace_type
  _atom_site_B_iso_or_equiv
  _atom_site_type_symbol
  Au1      1.0000 0.66667  0.33333  0.42325  Biso   1.000  Au
  Au2      1.0000 0.66667  0.33333  0.57675  Biso   1.000  Au
  Se1      1.0000 0.33333  0.66667  0.38658  Biso   1.000  Se
  Se2      1.0000 0.33333  0.66667  0.61342  Biso   1.000  Se
