data_image0
_cell_length_a       5.92103
_cell_length_b       6.61661
_cell_length_c       16.4393
_cell_angle_alpha    90
_cell_angle_beta     90
_cell_angle_gamma    90

_symmetry_space_group_name_H-M    "P 1"
_symmetry_int_tables_number       1

loop_
  _symmetry_equiv_pos_as_xyz
  'x, y, z'

loop_
  _atom_site_label
  _atom_site_occupancy
  _atom_site_fract_x
  _atom_site_fract_y
  _atom_site_fract_z
  _atom_site_thermal_displace_type
  _atom_site_B_iso_or_equiv
  _atom_site_type_symbol
  Au1      1.0000 0.50000  1.00000  0.50000  Biso   1.000  Au
  Au2      1.0000 0.00000  0.50000  0.50000  Biso   1.000  Au
  Se1      1.0000 0.10871  0.11420  0.46034  Biso   1.000  Se
  Se2      1.0000 0.60871  0.38580  0.53966  Biso   1.000  Se
  Se3      1.0000 0.89129  0.88580  0.53966  Biso   1.000  Se
  Se4      1.0000 0.39129  0.61420  0.46034  Biso   1.000  Se
