data_image0
_cell_length_a       4.21772
_cell_length_b       4.21874
_cell_length_c       18.8558
_cell_angle_alpha    90
_cell_angle_beta     90
_cell_angle_gamma    119.992

_symmetry_space_group_name_H-M    "P 1"
_symmetry_int_tables_number       1

loop_
  _symmetry_equiv_pos_as_xyz
  'x, y, z'

loop_
  _atom_site_label
  _atom_site_occupancy
  _atom_site_fract_x
  _atom_site_fract_y
  _atom_site_fract_z
  _atom_site_thermal_displace_type
  _atom_site_B_iso_or_equiv
  _atom_site_type_symbol
  Te1      1.0000 0.00005  0.00003  0.38804  Biso   1.000  Te
  Te2      1.0000 0.33328  0.66664  0.61202  Biso   1.000  Te
  Au1      1.0000 0.99997  0.00014  0.54504  Biso   1.000  Au
  Au2      1.0000 0.33337  0.66652  0.45503  Biso   1.000  Au
