data_image0
_cell_length_a       6.41506
_cell_length_b       7.08875
_cell_length_c       16.5771
_cell_angle_alpha    90
_cell_angle_beta     90
_cell_angle_gamma    90

_symmetry_space_group_name_H-M    "P 1"
_symmetry_int_tables_number       1

loop_
  _symmetry_equiv_pos_as_xyz
  'x, y, z'

loop_
  _atom_site_label
  _atom_site_occupancy
  _atom_site_fract_x
  _atom_site_fract_y
  _atom_site_fract_z
  _atom_site_thermal_displace_type
  _atom_site_B_iso_or_equiv
  _atom_site_type_symbol
  Au1      1.0000 0.50000  1.00000  0.50000  Biso   1.000  Au
  Au2      1.0000 0.00000  0.50000  0.50000  Biso   1.000  Au
  Te1      1.0000 0.12072  0.12692  0.45666  Biso   1.000  Te
  Te2      1.0000 0.62072  0.37308  0.54334  Biso   1.000  Te
  Te3      1.0000 0.87928  0.87308  0.54334  Biso   1.000  Te
  Te4      1.0000 0.37928  0.62692  0.45666  Biso   1.000  Te
