data_image0
_cell_length_a       5.45802
_cell_length_b       5.46073
_cell_length_c       18.8558
_cell_angle_alpha    90
_cell_angle_beta     90
_cell_angle_gamma    119.984

_symmetry_space_group_name_H-M    "P 1"
_symmetry_int_tables_number       1

loop_
  _symmetry_equiv_pos_as_xyz
  'x, y, z'

loop_
  _atom_site_label
  _atom_site_occupancy
  _atom_site_fract_x
  _atom_site_fract_y
  _atom_site_fract_z
  _atom_site_thermal_displace_type
  _atom_site_B_iso_or_equiv
  _atom_site_type_symbol
  Br1      1.0000 0.99964  0.00041  0.36322  Biso   1.000  Br
  Br2      1.0000 0.33369  0.66625  0.63684  Biso   1.000  Br
  Bi1      1.0000 0.99999  0.00011  0.50463  Biso   1.000  Bi
  Bi2      1.0000 0.33334  0.66655  0.49544  Biso   1.000  Bi
