data_image0
_cell_length_a       6.46971
_cell_length_b       6.46971
_cell_length_c       15
_cell_angle_alpha    90
_cell_angle_beta     90
_cell_angle_gamma    60.0196

_symmetry_space_group_name_H-M    "P 1"
_symmetry_int_tables_number       1

loop_
  _symmetry_equiv_pos_as_xyz
  'x, y, z'

loop_
  _atom_site_label
  _atom_site_occupancy
  _atom_site_fract_x
  _atom_site_fract_y
  _atom_site_fract_z
  _atom_site_thermal_displace_type
  _atom_site_B_iso_or_equiv
  _atom_site_type_symbol
  C1       1.0000 0.95724  0.95724  0.50000  Biso   1.000  C
  Bi1      1.0000 0.16673  0.16673  0.50000  Biso   1.000  Bi
  C2       1.0000 0.58566  0.95712  0.50000  Biso   1.000  C
  C3       1.0000 0.95712  0.58566  0.50000  Biso   1.000  C
  C4       1.0000 0.70954  0.08100  0.50000  Biso   1.000  C
  C5       1.0000 0.08100  0.70954  0.50000  Biso   1.000  C
  Bi2      1.0000 0.49994  0.49994  0.50000  Biso   1.000  Bi
  C6       1.0000 0.70943  0.70943  0.50000  Biso   1.000  C
