data_image0
_cell_length_a       5.44785
_cell_length_b       5.45244
_cell_length_c       18.8558
_cell_angle_alpha    90
_cell_angle_beta     90
_cell_angle_gamma    119.972

_symmetry_space_group_name_H-M    "P 1"
_symmetry_int_tables_number       1

loop_
  _symmetry_equiv_pos_as_xyz
  'x, y, z'

loop_
  _atom_site_label
  _atom_site_occupancy
  _atom_site_fract_x
  _atom_site_fract_y
  _atom_site_fract_z
  _atom_site_thermal_displace_type
  _atom_site_B_iso_or_equiv
  _atom_site_type_symbol
  Cl1      1.0000 0.99932  0.00072  0.37234  Biso   1.000  Cl
  Cl2      1.0000 0.33401  0.66594  0.62783  Biso   1.000  Cl
  Bi1      1.0000 0.99993  0.00020  0.50560  Biso   1.000  Bi
  Bi2      1.0000 0.33340  0.66647  0.49451  Biso   1.000  Bi
