data_image0
_cell_length_a       3.47421
_cell_length_b       3.47409
_cell_length_c       18.8558
_cell_angle_alpha    90
_cell_angle_beta     90
_cell_angle_gamma    120.001

_symmetry_space_group_name_H-M    "P 1"
_symmetry_int_tables_number       1

loop_
  _symmetry_equiv_pos_as_xyz
  'x, y, z'

loop_
  _atom_site_label
  _atom_site_occupancy
  _atom_site_fract_x
  _atom_site_fract_y
  _atom_site_fract_z
  _atom_site_thermal_displace_type
  _atom_site_B_iso_or_equiv
  _atom_site_type_symbol
  F1       1.0000 0.99769  0.00215  0.34181  Biso   1.000  F
  F2       1.0000 0.33565  0.66451  0.65826  Biso   1.000  F
  Bi1      1.0000 0.99892  0.00086  0.57817  Biso   1.000  Bi
  Bi2      1.0000 0.33442  0.66581  0.42190  Biso   1.000  Bi
