data_image0
_cell_length_a       8.93077
_cell_length_b       8.93077
_cell_length_c       15
_cell_angle_alpha    90
_cell_angle_beta     90
_cell_angle_gamma    60.0202

_symmetry_space_group_name_H-M    "P 1"
_symmetry_int_tables_number       1

loop_
  _symmetry_equiv_pos_as_xyz
  'x, y, z'

loop_
  _atom_site_label
  _atom_site_occupancy
  _atom_site_fract_x
  _atom_site_fract_y
  _atom_site_fract_z
  _atom_site_thermal_displace_type
  _atom_site_B_iso_or_equiv
  _atom_site_type_symbol
  Ge1      1.0000 0.98873  0.98873  0.50000  Biso   1.000  Ge
  Bi1      1.0000 0.16669  0.16669  0.50000  Biso   1.000  Bi
  Ge2      1.0000 0.52250  0.98873  0.50000  Biso   1.000  Ge
  Ge3      1.0000 0.98873  0.52250  0.50000  Biso   1.000  Ge
  Ge4      1.0000 0.67794  0.14417  0.50000  Biso   1.000  Ge
  Ge5      1.0000 0.14417  0.67794  0.50000  Biso   1.000  Ge
  Bi2      1.0000 0.49998  0.49998  0.50000  Biso   1.000  Bi
  Ge6      1.0000 0.67794  0.67794  0.50000  Biso   1.000  Ge
