data_image0
_cell_length_a       5.48141
_cell_length_b       5.48277
_cell_length_c       18.8558
_cell_angle_alpha    90
_cell_angle_beta     90
_cell_angle_gamma    119.992

_symmetry_space_group_name_H-M    "P 1"
_symmetry_int_tables_number       1

loop_
  _symmetry_equiv_pos_as_xyz
  'x, y, z'

loop_
  _atom_site_label
  _atom_site_occupancy
  _atom_site_fract_x
  _atom_site_fract_y
  _atom_site_fract_z
  _atom_site_thermal_displace_type
  _atom_site_B_iso_or_equiv
  _atom_site_type_symbol
  I1       1.0000 0.99979  0.00023  0.35004  Biso   1.000  I
  I2       1.0000 0.33355  0.66644  0.65006  Biso   1.000  I
  Bi1      1.0000 0.99998  0.00008  0.50230  Biso   1.000  Bi
  Bi2      1.0000 0.33335  0.66658  0.49771  Biso   1.000  Bi
