data_image0
_cell_length_a       7.69691
_cell_length_b       7.71059
_cell_length_c       18.4116
_cell_angle_alpha    90
_cell_angle_beta     90
_cell_angle_gamma    119.941

_symmetry_space_group_name_H-M    "P 1"
_symmetry_int_tables_number       1

loop_
  _symmetry_equiv_pos_as_xyz
  'x, y, z'

loop_
  _atom_site_label
  _atom_site_occupancy
  _atom_site_fract_x
  _atom_site_fract_y
  _atom_site_fract_z
  _atom_site_thermal_displace_type
  _atom_site_B_iso_or_equiv
  _atom_site_type_symbol
  Bi1      1.0000 0.99974  0.99984  0.49579  Biso   1.000  Bi
  Bi2      1.0000 0.33317  0.66677  0.49547  Biso   1.000  Bi
  P1       1.0000 0.66692  0.33338  0.45437  Biso   1.000  P
  P2       1.0000 0.66664  0.33333  0.57975  Biso   1.000  P
  Te1      1.0000 0.37274  0.03973  0.39865  Biso   1.000  Te
  Te2      1.0000 0.96091  0.33288  0.39850  Biso   1.000  Te
  Te3      1.0000 0.66724  0.62744  0.39863  Biso   1.000  Te
  Te4      1.0000 0.01763  0.68448  0.59299  Biso   1.000  Te
  Te5      1.0000 0.31626  0.33378  0.59279  Biso   1.000  Te
  Te6      1.0000 0.66552  0.98181  0.59295  Biso   1.000  Te
