data_image0
_cell_length_a       6.72636
_cell_length_b       7.10353
_cell_length_c       18.2462
_cell_angle_alpha    90
_cell_angle_beta     90
_cell_angle_gamma    118.259

_symmetry_space_group_name_H-M    "P 1"
_symmetry_int_tables_number       1

loop_
  _symmetry_equiv_pos_as_xyz
  'x, y, z'

loop_
  _atom_site_label
  _atom_site_occupancy
  _atom_site_fract_x
  _atom_site_fract_y
  _atom_site_fract_z
  _atom_site_thermal_displace_type
  _atom_site_B_iso_or_equiv
  _atom_site_type_symbol
  Bi1      1.0000 0.00593  0.98120  0.49572  Biso   1.000  Bi
  Bi2      1.0000 0.32380  0.67040  0.50218  Biso   1.000  Bi
  P1       1.0000 0.68695  0.35782  0.42250  Biso   1.000  P
  P2       1.0000 0.66545  0.33618  0.54755  Biso   1.000  P
  S1       1.0000 0.29196  0.93648  0.41156  Biso   1.000  S
  S2       1.0000 0.01012  0.36472  0.41418  Biso   1.000  S
  S3       1.0000 0.68269  0.66041  0.41129  Biso   1.000  S
  S4       1.0000 0.94262  0.62496  0.58799  Biso   1.000  S
  S5       1.0000 0.37126  0.32132  0.58536  Biso   1.000  S
  S6       1.0000 0.68354  0.07821  0.58862  Biso   1.000  S
