data_image0
_cell_length_a       10.4582
_cell_length_b       10.4582
_cell_length_c       15
_cell_angle_alpha    90
_cell_angle_beta     90
_cell_angle_gamma    60.0366

_symmetry_space_group_name_H-M    "P 1"
_symmetry_int_tables_number       1

loop_
  _symmetry_equiv_pos_as_xyz
  'x, y, z'

loop_
  _atom_site_label
  _atom_site_occupancy
  _atom_site_fract_x
  _atom_site_fract_y
  _atom_site_fract_z
  _atom_site_thermal_displace_type
  _atom_site_B_iso_or_equiv
  _atom_site_type_symbol
  Pb1      1.0000 0.00248  0.00248  0.50000  Biso   1.000  Pb
  Bi1      1.0000 0.16669  0.16669  0.50000  Biso   1.000  Bi
  Pb2      1.0000 0.49488  0.00251  0.50000  Biso   1.000  Pb
  Pb3      1.0000 0.00251  0.49488  0.50000  Biso   1.000  Pb
  Pb4      1.0000 0.66415  0.17179  0.50000  Biso   1.000  Pb
  Pb5      1.0000 0.17179  0.66415  0.50000  Biso   1.000  Pb
  Bi2      1.0000 0.49998  0.49998  0.50000  Biso   1.000  Bi
  Pb6      1.0000 0.66418  0.66418  0.50000  Biso   1.000  Pb
