data_image0
_cell_length_a       7.20154
_cell_length_b       7.21046
_cell_length_c       18.4116
_cell_angle_alpha    90
_cell_angle_beta     90
_cell_angle_gamma    119.959

_symmetry_space_group_name_H-M    "P 1"
_symmetry_int_tables_number       1

loop_
  _symmetry_equiv_pos_as_xyz
  'x, y, z'

loop_
  _atom_site_label
  _atom_site_occupancy
  _atom_site_fract_x
  _atom_site_fract_y
  _atom_site_fract_z
  _atom_site_thermal_displace_type
  _atom_site_B_iso_or_equiv
  _atom_site_type_symbol
  Bi1      1.0000 0.99983  0.99966  0.49724  Biso   1.000  Bi
  Bi2      1.0000 0.33327  0.66692  0.49703  Biso   1.000  Bi
  P1       1.0000 0.66674  0.33335  0.45225  Biso   1.000  P
  P2       1.0000 0.66636  0.33320  0.57792  Biso   1.000  P
  Se1      1.0000 0.37980  0.04678  0.40502  Biso   1.000  Se
  Se2      1.0000 0.95333  0.33298  0.40499  Biso   1.000  Se
  Se3      1.0000 0.66709  0.62017  0.40502  Biso   1.000  Se
  Se4      1.0000 0.01301  0.67989  0.58685  Biso   1.000  Se
  Se5      1.0000 0.32154  0.33354  0.58680  Biso   1.000  Se
  Se6      1.0000 0.66572  0.98691  0.58683  Biso   1.000  Se
