data_image0
_cell_length_a       4.01199
_cell_length_b       4.01281
_cell_length_c       18.8558
_cell_angle_alpha    90
_cell_angle_beta     90
_cell_angle_gamma    119.993

_symmetry_space_group_name_H-M    "P 1"
_symmetry_int_tables_number       1

loop_
  _symmetry_equiv_pos_as_xyz
  'x, y, z'

loop_
  _atom_site_label
  _atom_site_occupancy
  _atom_site_fract_x
  _atom_site_fract_y
  _atom_site_fract_z
  _atom_site_thermal_displace_type
  _atom_site_B_iso_or_equiv
  _atom_site_type_symbol
  S1       1.0000 0.99998  0.00009  0.34889  Biso   1.000  S
  S2       1.0000 0.33335  0.66657  0.65117  Biso   1.000  S
  Bi1      1.0000 0.99995  0.00006  0.57520  Biso   1.000  Bi
  Bi2      1.0000 0.33339  0.66661  0.42486  Biso   1.000  Bi
