data_image0
_cell_length_a       4.91737
_cell_length_b       4.91737
_cell_length_c       18.7936
_cell_angle_alpha    90
_cell_angle_beta     90
_cell_angle_gamma    120

_symmetry_space_group_name_H-M    "P 1"
_symmetry_int_tables_number       1

loop_
  _symmetry_equiv_pos_as_xyz
  'x, y, z'

loop_
  _atom_site_label
  _atom_site_occupancy
  _atom_site_fract_x
  _atom_site_fract_y
  _atom_site_fract_z
  _atom_site_thermal_displace_type
  _atom_site_B_iso_or_equiv
  _atom_site_type_symbol
  Bi1      1.0000 0.33370  0.66826  0.58176  Biso   1.000  Bi
  Se1      1.0000 0.66801  0.33489  0.39907  Biso   1.000  Se
  Se2      1.0000 0.00021  0.00154  0.60093  Biso   1.000  Se
  Bi2      1.0000 0.33464  0.66843  0.41824  Biso   1.000  Bi
