data_image0
_cell_length_a       9.90952
_cell_length_b       9.90952
_cell_length_c       15
_cell_angle_alpha    90
_cell_angle_beta     90
_cell_angle_gamma    60.0203

_symmetry_space_group_name_H-M    "P 1"
_symmetry_int_tables_number       1

loop_
  _symmetry_equiv_pos_as_xyz
  'x, y, z'

loop_
  _atom_site_label
  _atom_site_occupancy
  _atom_site_fract_x
  _atom_site_fract_y
  _atom_site_fract_z
  _atom_site_thermal_displace_type
  _atom_site_B_iso_or_equiv
  _atom_site_type_symbol
  Sn1      1.0000 0.99590  0.99590  0.50000  Biso   1.000  Sn
  Bi1      1.0000 0.16669  0.16669  0.50000  Biso   1.000  Bi
  Sn2      1.0000 0.50815  0.99589  0.50000  Biso   1.000  Sn
  Sn3      1.0000 0.99589  0.50815  0.50000  Biso   1.000  Sn
  Sn4      1.0000 0.67078  0.15852  0.50000  Biso   1.000  Sn
  Sn5      1.0000 0.15852  0.67078  0.50000  Biso   1.000  Sn
  Bi2      1.0000 0.49998  0.49998  0.50000  Biso   1.000  Bi
  Sn6      1.0000 0.67077  0.67077  0.50000  Biso   1.000  Sn
