data_image0
_cell_length_a       5.47097
_cell_length_b       7.09642
_cell_length_c       18.1251
_cell_angle_alpha    90
_cell_angle_beta     90
_cell_angle_gamma    90

_symmetry_space_group_name_H-M    "P 1"
_symmetry_int_tables_number       1

loop_
  _symmetry_equiv_pos_as_xyz
  'x, y, z'

loop_
  _atom_site_label
  _atom_site_occupancy
  _atom_site_fract_x
  _atom_site_fract_y
  _atom_site_fract_z
  _atom_site_thermal_displace_type
  _atom_site_B_iso_or_equiv
  _atom_site_type_symbol
  Bi1      1.0000 0.50000  1.00000  0.50000  Biso   1.000  Bi
  Bi2      1.0000 0.00000  0.50000  0.50000  Biso   1.000  Bi
  Te1      1.0000 0.99995  0.09308  0.42695  Biso   1.000  Te
  Te2      1.0000 0.50001  0.38846  0.58489  Biso   1.000  Te
  Te3      1.0000 0.00005  0.90692  0.57305  Biso   1.000  Te
  Te4      1.0000 0.49999  0.61154  0.41511  Biso   1.000  Te
