data_image0
_cell_length_a       5.23709
_cell_length_b       5.23814
_cell_length_c       18.8558
_cell_angle_alpha    90
_cell_angle_beta     90
_cell_angle_gamma    119.993

_symmetry_space_group_name_H-M    "P 1"
_symmetry_int_tables_number       1

loop_
  _symmetry_equiv_pos_as_xyz
  'x, y, z'

loop_
  _atom_site_label
  _atom_site_occupancy
  _atom_site_fract_x
  _atom_site_fract_y
  _atom_site_fract_z
  _atom_site_thermal_displace_type
  _atom_site_B_iso_or_equiv
  _atom_site_type_symbol
  Br1      1.0000 0.99858  0.00125  0.36638  Biso   1.000  Br
  Br2      1.0000 0.33475  0.66542  0.63367  Biso   1.000  Br
  Sb1      1.0000 0.99986  0.00015  0.50247  Biso   1.000  Sb
  Sb2      1.0000 0.33347  0.66652  0.49757  Biso   1.000  Sb
