data_image0
_cell_length_a       7.62291
_cell_length_b       7.56444
_cell_length_c       30.0746
_cell_angle_alpha    90
_cell_angle_beta     90
_cell_angle_gamma    90

_symmetry_space_group_name_H-M    "P 1"
_symmetry_int_tables_number       1

loop_
  _symmetry_equiv_pos_as_xyz
  'x, y, z'

loop_
  _atom_site_label
  _atom_site_occupancy
  _atom_site_fract_x
  _atom_site_fract_y
  _atom_site_fract_z
  _atom_site_thermal_displace_type
  _atom_site_B_iso_or_equiv
  _atom_site_type_symbol
  C1       1.0000 0.03951  0.46415  0.39382  Biso   1.000  C
  C2       1.0000 0.53991  0.03608  0.60619  Biso   1.000  C
  C3       1.0000 0.95888  0.53534  0.60673  Biso   1.000  C
  C4       1.0000 0.45833  0.96494  0.39334  Biso   1.000  C
  H1       1.0000 0.01767  0.32915  0.40498  Biso   1.000  H
  H2       1.0000 0.51838  0.17111  0.59502  Biso   1.000  H
  H3       1.0000 0.97985  0.67045  0.59552  Biso   1.000  H
  H4       1.0000 0.47915  0.82986  0.40458  Biso   1.000  H
  H5       1.0000 0.17135  0.50319  0.40353  Biso   1.000  H
  H6       1.0000 0.67172  0.99674  0.59652  Biso   1.000  H
  H7       1.0000 0.82631  0.49633  0.59767  Biso   1.000  H
  H8       1.0000 0.32572  0.00410  0.40232  Biso   1.000  H
  C5       1.0000 0.01207  0.48166  0.34397  Biso   1.000  C
  C6       1.0000 0.51230  0.01855  0.65604  Biso   1.000  C
  C7       1.0000 0.99035  0.51753  0.65644  Biso   1.000  C
  C8       1.0000 0.49016  0.98257  0.34364  Biso   1.000  C
  H9       1.0000 0.03064  0.61972  0.33397  Biso   1.000  H
  H10      1.0000 0.53087  0.88049  0.66604  Biso   1.000  H
  H11      1.0000 0.97259  0.37944  0.66649  Biso   1.000  H
  H12      1.0000 0.47255  0.12065  0.33355  Biso   1.000  H
  H13      1.0000 0.87658  0.44597  0.33551  Biso   1.000  H
  H14      1.0000 0.37676  0.05416  0.66447  Biso   1.000  H
  H15      1.0000 0.12652  0.55311  0.66417  Biso   1.000  H
  H16      1.0000 0.62637  0.94694  0.33596  Biso   1.000  H
  C9       1.0000 0.13992  0.36263  0.31853  Biso   1.000  C
  C10      1.0000 0.64003  0.13758  0.68151  Biso   1.000  C
  C11      1.0000 0.86477  0.63656  0.68255  Biso   1.000  C
  C12      1.0000 0.36474  0.86354  0.31748  Biso   1.000  C
  H17      1.0000 0.11884  0.22562  0.32892  Biso   1.000  H
  H18      1.0000 0.61899  0.27460  0.67112  Biso   1.000  H
  H19      1.0000 0.88533  0.77358  0.67206  Biso   1.000  H
  H20      1.0000 0.38521  0.72654  0.32799  Biso   1.000  H
  H21      1.0000 0.27411  0.39668  0.32822  Biso   1.000  H
  H22      1.0000 0.77426  0.10352  0.67185  Biso   1.000  H
  H23      1.0000 0.72966  0.60292  0.67358  Biso   1.000  H
  H24      1.0000 0.22957  0.89722  0.32639  Biso   1.000  H
  C13      1.0000 0.11963  0.37807  0.26818  Biso   1.000  C
  C14      1.0000 0.61957  0.12210  0.73185  Biso   1.000  C
  C15      1.0000 0.88948  0.62121  0.73278  Biso   1.000  C
  C16      1.0000 0.38982  0.87883  0.26726  Biso   1.000  C
  H25      1.0000 0.98762  0.33999  0.25768  Biso   1.000  H
  H26      1.0000 0.48751  0.16009  0.74232  Biso   1.000  H
  H27      1.0000 0.02264  0.65869  0.74247  Biso   1.000  H
  H28      1.0000 0.52305  0.84135  0.25764  Biso   1.000  H
  H29      1.0000 0.21292  0.29289  0.25083  Biso   1.000  H
  H30      1.0000 0.71276  0.20730  0.74923  Biso   1.000  H
  H31      1.0000 0.79826  0.70704  0.75062  Biso   1.000  H
  H32      1.0000 0.29878  0.79295  0.24938  Biso   1.000  H
  H33      1.0000 0.14244  0.51367  0.25707  Biso   1.000  H
  H34      1.0000 0.64240  0.98650  0.74296  Biso   1.000  H
  H35      1.0000 0.86712  0.48585  0.74412  Biso   1.000  H
  H36      1.0000 0.36754  0.01418  0.25591  Biso   1.000  H
  N1       1.0000 0.91514  0.57900  0.41889  Biso   1.000  N
  N2       1.0000 0.41550  0.92135  0.58109  Biso   1.000  N
  N3       1.0000 0.08127  0.42069  0.58100  Biso   1.000  N
  N4       1.0000 0.58065  0.07957  0.41909  Biso   1.000  N
  H37      1.0000 0.93621  0.71156  0.41233  Biso   1.000  H
  H38      1.0000 0.43653  0.78879  0.58770  Biso   1.000  H
  H39      1.0000 0.06039  0.28796  0.58752  Biso   1.000  H
  H40      1.0000 0.55991  0.21229  0.41256  Biso   1.000  H
  H41      1.0000 0.93173  0.56229  0.45234  Biso   1.000  H
  H42      1.0000 0.43238  0.93788  0.54765  Biso   1.000  H
  H43      1.0000 0.06260  0.43793  0.54764  Biso   1.000  H
  H44      1.0000 0.56201  0.06230  0.45244  Biso   1.000  H
  H45      1.0000 0.78548  0.54905  0.41193  Biso   1.000  H
  H46      1.0000 0.28582  0.95137  0.58800  Biso   1.000  H
  H47      1.0000 0.21132  0.45029  0.58750  Biso   1.000  H
  H48      1.0000 0.71073  0.04996  0.41259  Biso   1.000  H
  Cl1      1.0000 0.48248  0.51260  0.59183  Biso   1.000  Cl
  Cl2      1.0000 0.98049  0.98924  0.40827  Biso   1.000  Cl
  Cl3      1.0000 0.51576  0.48768  0.40810  Biso   1.000  Cl
  Cl4      1.0000 0.01588  0.01240  0.59187  Biso   1.000  Cl
  Br1      1.0000 0.69742  0.79871  0.50296  Biso   1.000  Br
  Br2      1.0000 0.19727  0.70149  0.49701  Biso   1.000  Br
  Br3      1.0000 0.29437  0.19953  0.49657  Biso   1.000  Br
  Br4      1.0000 0.79434  0.30080  0.50353  Biso   1.000  Br
  Ge1      1.0000 0.50031  0.50085  0.50017  Biso   1.000  Ge
  Ge2      1.0000 0.00016  0.99941  0.49984  Biso   1.000  Ge
