data_image0
_cell_length_a       8.07855
_cell_length_b       7.96991
_cell_length_c       30.4805
_cell_angle_alpha    90
_cell_angle_beta     90
_cell_angle_gamma    90

_symmetry_space_group_name_H-M    "P 1"
_symmetry_int_tables_number       1

loop_
  _symmetry_equiv_pos_as_xyz
  'x, y, z'

loop_
  _atom_site_label
  _atom_site_occupancy
  _atom_site_fract_x
  _atom_site_fract_y
  _atom_site_fract_z
  _atom_site_thermal_displace_type
  _atom_site_B_iso_or_equiv
  _atom_site_type_symbol
  C1       1.0000 0.05127  0.46869  0.39375  Biso   1.000  C
  C2       1.0000 0.55159  0.03122  0.60617  Biso   1.000  C
  C3       1.0000 0.94719  0.52741  0.60826  Biso   1.000  C
  C4       1.0000 0.44757  0.97102  0.39188  Biso   1.000  C
  H1       1.0000 0.03863  0.33793  0.40336  Biso   1.000  H
  H2       1.0000 0.53894  0.16196  0.59653  Biso   1.000  H
  H3       1.0000 0.95516  0.65760  0.59778  Biso   1.000  H
  H4       1.0000 0.45584  0.84057  0.40214  Biso   1.000  H
  H5       1.0000 0.17657  0.50941  0.40113  Biso   1.000  H
  H6       1.0000 0.67692  0.99053  0.59881  Biso   1.000  H
  H7       1.0000 0.82403  0.48090  0.60069  Biso   1.000  H
  H8       1.0000 0.32422  0.01690  0.39953  Biso   1.000  H
  C5       1.0000 0.00876  0.49438  0.34552  Biso   1.000  C
  C6       1.0000 0.50893  0.00553  0.65439  Biso   1.000  C
  C7       1.0000 0.98832  0.50806  0.65679  Biso   1.000  C
  C8       1.0000 0.48858  0.99148  0.34336  Biso   1.000  C
  H9       1.0000 0.02048  0.62759  0.33721  Biso   1.000  H
  H10      1.0000 0.52058  0.87230  0.66269  Biso   1.000  H
  H11      1.0000 0.97847  0.37562  0.66613  Biso   1.000  H
  H12      1.0000 0.47817  0.12402  0.33418  Biso   1.000  H
  H13      1.0000 0.87948  0.45946  0.33972  Biso   1.000  H
  H14      1.0000 0.37963  0.04048  0.66016  Biso   1.000  H
  H15      1.0000 0.11687  0.54587  0.66258  Biso   1.000  H
  H16      1.0000 0.61725  0.95419  0.33751  Biso   1.000  H
  C9       1.0000 0.12164  0.38975  0.31572  Biso   1.000  C
  C10      1.0000 0.62178  0.11009  0.68422  Biso   1.000  C
  C11      1.0000 0.87257  0.61412  0.68546  Biso   1.000  C
  C12      1.0000 0.37314  0.88541  0.31458  Biso   1.000  C
  H17      1.0000 0.10742  0.25695  0.32405  Biso   1.000  H
  H18      1.0000 0.60755  0.24290  0.67591  Biso   1.000  H
  H19      1.0000 0.88530  0.74607  0.67613  Biso   1.000  H
  H20      1.0000 0.38619  0.75337  0.32380  Biso   1.000  H
  H21      1.0000 0.25089  0.42201  0.32229  Biso   1.000  H
  H22      1.0000 0.75106  0.07784  0.67765  Biso   1.000  H
  H23      1.0000 0.74412  0.57924  0.67871  Biso   1.000  H
  H24      1.0000 0.24456  0.91979  0.32133  Biso   1.000  H
  C13      1.0000 0.08370  0.41583  0.26708  Biso   1.000  C
  C14      1.0000 0.58376  0.08387  0.73285  Biso   1.000  C
  C15      1.0000 0.90824  0.59427  0.73443  Biso   1.000  C
  C16      1.0000 0.40880  0.90590  0.26563  Biso   1.000  C
  H25      1.0000 0.95568  0.38193  0.25950  Biso   1.000  H
  H26      1.0000 0.45572  0.11773  0.74041  Biso   1.000  H
  H27      1.0000 0.03545  0.63061  0.74221  Biso   1.000  H
  H28      1.0000 0.53604  0.86984  0.25779  Biso   1.000  H
  H29      1.0000 0.16452  0.33877  0.24657  Biso   1.000  H
  H30      1.0000 0.66454  0.16086  0.75338  Biso   1.000  H
  H31      1.0000 0.82544  0.67290  0.75394  Biso   1.000  H
  H32      1.0000 0.32607  0.82739  0.24606  Biso   1.000  H
  H33      1.0000 0.10170  0.54691  0.25756  Biso   1.000  H
  H34      1.0000 0.60170  0.95275  0.74234  Biso   1.000  H
  H35      1.0000 0.89109  0.46419  0.74495  Biso   1.000  H
  H36      1.0000 0.39142  0.03604  0.25518  Biso   1.000  H
  N1       1.0000 0.93909  0.56718  0.42311  Biso   1.000  N
  N2       1.0000 0.43954  0.93259  0.57680  Biso   1.000  N
  N3       1.0000 0.06490  0.43078  0.58009  Biso   1.000  N
  N4       1.0000 0.56486  0.06722  0.42032  Biso   1.000  N
  H37      1.0000 0.94935  0.69446  0.41689  Biso   1.000  H
  H38      1.0000 0.44994  0.80533  0.58299  Biso   1.000  H
  H39      1.0000 0.05802  0.30361  0.58679  Biso   1.000  H
  H40      1.0000 0.55740  0.19463  0.41393  Biso   1.000  H
  H41      1.0000 0.96757  0.54871  0.45533  Biso   1.000  H
  H42      1.0000 0.46795  0.95121  0.54459  Biso   1.000  H
  H43      1.0000 0.03830  0.44518  0.54761  Biso   1.000  H
  H44      1.0000 0.53863  0.05114  0.45278  Biso   1.000  H
  H45      1.0000 0.81628  0.53505  0.41843  Biso   1.000  H
  H46      1.0000 0.31671  0.96455  0.58147  Biso   1.000  H
  H47      1.0000 0.18636  0.46716  0.58522  Biso   1.000  H
  H48      1.0000 0.68649  0.03172  0.41501  Biso   1.000  H
  I1       1.0000 0.47560  0.50882  0.60220  Biso   1.000  I
  I2       1.0000 0.97593  0.99099  0.39788  Biso   1.000  I
  I3       1.0000 0.52721  0.49268  0.39728  Biso   1.000  I
  I4       1.0000 0.02701  0.00558  0.60260  Biso   1.000  I
  Br1      1.0000 0.73437  0.79635  0.50455  Biso   1.000  Br
  Br2      1.0000 0.23435  0.70253  0.49543  Biso   1.000  Br
  Br3      1.0000 0.30080  0.22467  0.49697  Biso   1.000  Br
  Br4      1.0000 0.80116  0.27438  0.50304  Biso   1.000  Br
  Ge1      1.0000 0.47972  0.49377  0.49918  Biso   1.000  Ge
  Ge2      1.0000 0.97991  0.00494  0.50077  Biso   1.000  Ge
