data_image0
_cell_length_a       7.73564
_cell_length_b       7.67447
_cell_length_c       29.9808
_cell_angle_alpha    90
_cell_angle_beta     90
_cell_angle_gamma    90

_symmetry_space_group_name_H-M    "P 1"
_symmetry_int_tables_number       1

loop_
  _symmetry_equiv_pos_as_xyz
  'x, y, z'

loop_
  _atom_site_label
  _atom_site_occupancy
  _atom_site_fract_x
  _atom_site_fract_y
  _atom_site_fract_z
  _atom_site_thermal_displace_type
  _atom_site_B_iso_or_equiv
  _atom_site_type_symbol
  C1       1.0000 0.04728  0.46460  0.39785  Biso   1.000  C
  C2       1.0000 0.54586  0.03431  0.60479  Biso   1.000  C
  C3       1.0000 0.95591  0.53495  0.60481  Biso   1.000  C
  C4       1.0000 0.45293  0.96466  0.39785  Biso   1.000  C
  H1       1.0000 0.02793  0.32942  0.40743  Biso   1.000  H
  H2       1.0000 0.52654  0.16737  0.59339  Biso   1.000  H
  H3       1.0000 0.97610  0.66788  0.59341  Biso   1.000  H
  H4       1.0000 0.47212  0.82945  0.40743  Biso   1.000  H
  H5       1.0000 0.17830  0.50234  0.40659  Biso   1.000  H
  H6       1.0000 0.67561  0.99349  0.59563  Biso   1.000  H
  H7       1.0000 0.82614  0.49469  0.59554  Biso   1.000  H
  H8       1.0000 0.32198  0.00256  0.40660  Biso   1.000  H
  C5       1.0000 0.01112  0.49218  0.34841  Biso   1.000  C
  C6       1.0000 0.51437  0.01750  0.65475  Biso   1.000  C
  C7       1.0000 0.98657  0.51815  0.65482  Biso   1.000  C
  C8       1.0000 0.48901  0.99216  0.34840  Biso   1.000  C
  H9       1.0000 0.02954  0.62979  0.33996  Biso   1.000  H
  H10      1.0000 0.53163  0.88132  0.66477  Biso   1.000  H
  H11      1.0000 0.96931  0.38194  0.66480  Biso   1.000  H
  H12      1.0000 0.47082  0.12980  0.33995  Biso   1.000  H
  H13      1.0000 0.87585  0.46046  0.34118  Biso   1.000  H
  H14      1.0000 0.38006  0.05238  0.66225  Biso   1.000  H
  H15      1.0000 0.12072  0.55317  0.66247  Biso   1.000  H
  H16      1.0000 0.62419  0.96020  0.34114  Biso   1.000  H
  C9       1.0000 0.13012  0.37865  0.31964  Biso   1.000  C
  C10      1.0000 0.63704  0.13448  0.68148  Biso   1.000  C
  C11      1.0000 0.86348  0.63503  0.68145  Biso   1.000  C
  C12      1.0000 0.36971  0.87881  0.31966  Biso   1.000  C
  H17      1.0000 0.10891  0.24177  0.32827  Biso   1.000  H
  H18      1.0000 0.61672  0.26975  0.67134  Biso   1.000  H
  H19      1.0000 0.88392  0.77036  0.67136  Biso   1.000  H
  H20      1.0000 0.39074  0.74190  0.32828  Biso   1.000  H
  H21      1.0000 0.26475  0.40774  0.32792  Biso   1.000  H
  H22      1.0000 0.77048  0.10219  0.67276  Biso   1.000  H
  H23      1.0000 0.73020  0.60270  0.67259  Biso   1.000  H
  H24      1.0000 0.23515  0.90810  0.32798  Biso   1.000  H
  C13      1.0000 0.10088  0.40494  0.26968  Biso   1.000  C
  C14      1.0000 0.61168  0.11792  0.73184  Biso   1.000  C
  C15      1.0000 0.88820  0.61820  0.73183  Biso   1.000  C
  C16      1.0000 0.39876  0.90504  0.26970  Biso   1.000  C
  H25      1.0000 0.96804  0.37298  0.26028  Biso   1.000  H
  H26      1.0000 0.48024  0.15403  0.74156  Biso   1.000  H
  H27      1.0000 0.01946  0.65437  0.74168  Biso   1.000  H
  H28      1.0000 0.53149  0.87285  0.26025  Biso   1.000  H
  H29      1.0000 0.18722  0.32197  0.25016  Biso   1.000  H
  H30      1.0000 0.70093  0.20294  0.74984  Biso   1.000  H
  H31      1.0000 0.79867  0.70305  0.74978  Biso   1.000  H
  H32      1.0000 0.31222  0.82222  0.25019  Biso   1.000  H
  H33      1.0000 0.12518  0.54007  0.25997  Biso   1.000  H
  H34      1.0000 0.63458  0.98450  0.74316  Biso   1.000  H
  H35      1.0000 0.86524  0.48469  0.74306  Biso   1.000  H
  H36      1.0000 0.37468  0.04021  0.25999  Biso   1.000  H
  N1       1.0000 0.92901  0.57097  0.42634  Biso   1.000  N
  N2       1.0000 0.42336  0.92267  0.57910  Biso   1.000  N
  N3       1.0000 0.07811  0.42260  0.57924  Biso   1.000  N
  N4       1.0000 0.57136  0.07093  0.42632  Biso   1.000  N
  H37      1.0000 0.94536  0.70287  0.42049  Biso   1.000  H
  H38      1.0000 0.44102  0.79212  0.58652  Biso   1.000  H
  H39      1.0000 0.05942  0.29216  0.58663  Biso   1.000  H
  H40      1.0000 0.55508  0.20281  0.42044  Biso   1.000  H
  H41      1.0000 0.95117  0.54916  0.45935  Biso   1.000  H
  H42      1.0000 0.44057  0.93648  0.54562  Biso   1.000  H
  H43      1.0000 0.06184  0.43668  0.54574  Biso   1.000  H
  H44      1.0000 0.54904  0.04926  0.45933  Biso   1.000  H
  H45      1.0000 0.80072  0.54172  0.41993  Biso   1.000  H
  H46      1.0000 0.29598  0.95381  0.58613  Biso   1.000  H
  H47      1.0000 0.20560  0.45274  0.58644  Biso   1.000  H
  H48      1.0000 0.69964  0.04158  0.41993  Biso   1.000  H
  Br1      1.0000 0.48010  0.51038  0.59860  Biso   1.000  Br
  Br2      1.0000 0.97515  0.98670  0.40428  Biso   1.000  Br
  Br3      1.0000 0.52501  0.48661  0.40417  Biso   1.000  Br
  Br4      1.0000 0.02150  0.01047  0.59870  Biso   1.000  Br
  Cl1      1.0000 0.68604  0.76340  0.50400  Biso   1.000  Cl
  Cl2      1.0000 0.23488  0.68443  0.49766  Biso   1.000  Cl
  Cl3      1.0000 0.26658  0.18348  0.49730  Biso   1.000  Cl
  Cl4      1.0000 0.81448  0.26274  0.50401  Biso   1.000  Cl
  Ge1      1.0000 0.49615  0.51393  0.50090  Biso   1.000  Ge
  Ge2      1.0000 0.00464  0.01380  0.50096  Biso   1.000  Ge
