data_image0
_cell_length_a       8.05372
_cell_length_b       7.96932
_cell_length_c       30.2368
_cell_angle_alpha    90
_cell_angle_beta     90
_cell_angle_gamma    90

_symmetry_space_group_name_H-M    "P 1"
_symmetry_int_tables_number       1

loop_
  _symmetry_equiv_pos_as_xyz
  'x, y, z'

loop_
  _atom_site_label
  _atom_site_occupancy
  _atom_site_fract_x
  _atom_site_fract_y
  _atom_site_fract_z
  _atom_site_thermal_displace_type
  _atom_site_B_iso_or_equiv
  _atom_site_type_symbol
  C1       1.0000 0.03180  0.47090  0.38950  Biso   1.000  C
  C2       1.0000 0.53146  0.02846  0.61049  Biso   1.000  C
  C3       1.0000 0.96925  0.52936  0.61057  Biso   1.000  C
  C4       1.0000 0.46948  0.97211  0.38946  Biso   1.000  C
  H1       1.0000 0.00568  0.34347  0.40047  Biso   1.000  H
  H2       1.0000 0.50534  0.15573  0.59942  Biso   1.000  H
  H3       1.0000 0.99493  0.65684  0.59955  Biso   1.000  H
  H4       1.0000 0.49528  0.84477  0.40053  Biso   1.000  H
  H5       1.0000 0.15578  0.50488  0.40072  Biso   1.000  H
  H6       1.0000 0.65543  0.99435  0.59930  Biso   1.000  H
  H7       1.0000 0.84550  0.49485  0.59932  Biso   1.000  H
  H8       1.0000 0.34563  0.00646  0.40066  Biso   1.000  H
  C5       1.0000 0.01402  0.48883  0.33966  Biso   1.000  C
  C6       1.0000 0.51365  0.01098  0.66034  Biso   1.000  C
  C7       1.0000 0.98685  0.51170  0.66040  Biso   1.000  C
  C8       1.0000 0.48714  0.98953  0.33961  Biso   1.000  C
  H9       1.0000 0.03710  0.61967  0.33025  Biso   1.000  H
  H10      1.0000 0.53671  0.88022  0.66982  Biso   1.000  H
  H11      1.0000 0.96382  0.38091  0.66986  Biso   1.000  H
  H12      1.0000 0.46379  0.12022  0.33011  Biso   1.000  H
  H13      1.0000 0.88594  0.45957  0.33000  Biso   1.000  H
  H14      1.0000 0.38555  0.04035  0.66997  Biso   1.000  H
  H15      1.0000 0.11493  0.54105  0.67007  Biso   1.000  H
  H16      1.0000 0.61525  0.96036  0.32991  Biso   1.000  H
  C9       1.0000 0.13457  0.37309  0.31505  Biso   1.000  C
  C10      1.0000 0.63422  0.12687  0.68490  Biso   1.000  C
  C11      1.0000 0.86630  0.62752  0.68497  Biso   1.000  C
  C12      1.0000 0.36662  0.87338  0.31512  Biso   1.000  C
  H17      1.0000 0.11030  0.24326  0.32492  Biso   1.000  H
  H18      1.0000 0.60984  0.25666  0.67501  Biso   1.000  H
  H19      1.0000 0.89083  0.75736  0.67516  Biso   1.000  H
  H20      1.0000 0.39124  0.74366  0.32502  Biso   1.000  H
  H21      1.0000 0.26143  0.40193  0.32555  Biso   1.000  H
  H22      1.0000 0.76105  0.09810  0.67437  Biso   1.000  H
  H23      1.0000 0.73950  0.59896  0.67439  Biso   1.000  H
  H24      1.0000 0.23985  0.90202  0.32571  Biso   1.000  H
  C13      1.0000 0.12027  0.38980  0.26487  Biso   1.000  C
  C14      1.0000 0.62019  0.11029  0.73509  Biso   1.000  C
  C15      1.0000 0.87997  0.61040  0.73516  Biso   1.000  C
  C16      1.0000 0.38008  0.88986  0.26492  Biso   1.000  C
  H25      1.0000 0.99531  0.35797  0.25350  Biso   1.000  H
  H26      1.0000 0.49523  0.14194  0.74650  Biso   1.000  H
  H27      1.0000 0.00482  0.64194  0.74666  Biso   1.000  H
  H28      1.0000 0.50495  0.85841  0.25341  Biso   1.000  H
  H29      1.0000 0.20756  0.30661  0.24804  Biso   1.000  H
  H30      1.0000 0.70742  0.19371  0.75186  Biso   1.000  H
  H31      1.0000 0.79262  0.69361  0.75196  Biso   1.000  H
  H32      1.0000 0.29276  0.80622  0.24825  Biso   1.000  H
  H33      1.0000 0.14693  0.51803  0.25417  Biso   1.000  H
  H34      1.0000 0.64714  0.98214  0.74581  Biso   1.000  H
  H35      1.0000 0.85298  0.48212  0.74576  Biso   1.000  H
  H36      1.0000 0.35281  0.01795  0.25420  Biso   1.000  H
  N1       1.0000 0.91274  0.58356  0.41311  Biso   1.000  N
  N2       1.0000 0.41241  0.91556  0.58696  Biso   1.000  N
  N3       1.0000 0.08884  0.41701  0.58703  Biso   1.000  N
  N4       1.0000 0.58864  0.08483  0.41298  Biso   1.000  N
  H37      1.0000 0.93551  0.70892  0.40644  Biso   1.000  H
  H38      1.0000 0.43512  0.79030  0.59377  Biso   1.000  H
  H39      1.0000 0.06618  0.29160  0.59364  Biso   1.000  H
  H40      1.0000 0.56600  0.21011  0.40620  Biso   1.000  H
  H41      1.0000 0.92337  0.56843  0.44661  Biso   1.000  H
  H42      1.0000 0.42329  0.93009  0.55346  Biso   1.000  H
  H43      1.0000 0.07853  0.43221  0.55355  Biso   1.000  H
  H44      1.0000 0.57787  0.07026  0.44647  Biso   1.000  H
  H45      1.0000 0.79043  0.55696  0.40518  Biso   1.000  H
  H46      1.0000 0.29010  0.94246  0.59484  Biso   1.000  H
  H47      1.0000 0.21109  0.44387  0.59505  Biso   1.000  H
  H48      1.0000 0.71094  0.05781  0.40511  Biso   1.000  H
  Br1      1.0000 0.48594  0.50737  0.59791  Biso   1.000  Br
  Br2      1.0000 0.98539  0.99233  0.40214  Biso   1.000  Br
  Br3      1.0000 0.51534  0.49303  0.40216  Biso   1.000  Br
  Br4      1.0000 0.01556  0.00827  0.59787  Biso   1.000  Br
  I1       1.0000 0.69419  0.80767  0.50338  Biso   1.000  I
  I2       1.0000 0.19431  0.69285  0.49648  Biso   1.000  I
  I3       1.0000 0.30627  0.19282  0.49637  Biso   1.000  I
  I4       1.0000 0.80628  0.30754  0.50371  Biso   1.000  I
  Ge1      1.0000 0.50018  0.50002  0.49998  Biso   1.000  Ge
  Ge2      1.0000 0.00010  0.00024  0.50006  Biso   1.000  Ge
