data_image0
_cell_length_a       7.88763
_cell_length_b       7.80535
_cell_length_c       30.1659
_cell_angle_alpha    90
_cell_angle_beta     90
_cell_angle_gamma    90

_symmetry_space_group_name_H-M    "P 1"
_symmetry_int_tables_number       1

loop_
  _symmetry_equiv_pos_as_xyz
  'x, y, z'

loop_
  _atom_site_label
  _atom_site_occupancy
  _atom_site_fract_x
  _atom_site_fract_y
  _atom_site_fract_z
  _atom_site_thermal_displace_type
  _atom_site_B_iso_or_equiv
  _atom_site_type_symbol
  C1       1.0000 0.03842  0.46810  0.39273  Biso   1.000  C
  C2       1.0000 0.53989  0.03703  0.60477  Biso   1.000  C
  C3       1.0000 0.95830  0.53653  0.60481  Biso   1.000  C
  C4       1.0000 0.45559  0.97071  0.39256  Biso   1.000  C
  H1       1.0000 0.01617  0.33705  0.40353  Biso   1.000  H
  H2       1.0000 0.51750  0.17035  0.59602  Biso   1.000  H
  H3       1.0000 0.98141  0.66965  0.59597  Biso   1.000  H
  H4       1.0000 0.47623  0.83973  0.40365  Biso   1.000  H
  H5       1.0000 0.16571  0.50527  0.40270  Biso   1.000  H
  H6       1.0000 0.66773  0.00275  0.59461  Biso   1.000  H
  H7       1.0000 0.83004  0.50303  0.59482  Biso   1.000  H
  H8       1.0000 0.32828  0.00939  0.40213  Biso   1.000  H
  C5       1.0000 0.01247  0.48768  0.34297  Biso   1.000  C
  C6       1.0000 0.51181  0.00547  0.65402  Biso   1.000  C
  C7       1.0000 0.98704  0.50503  0.65402  Biso   1.000  C
  C8       1.0000 0.48395  0.98874  0.34285  Biso   1.000  C
  H9       1.0000 0.03208  0.62190  0.33359  Biso   1.000  H
  H10      1.0000 0.53296  0.86969  0.66141  Biso   1.000  H
  H11      1.0000 0.96600  0.36923  0.66142  Biso   1.000  H
  H12      1.0000 0.46579  0.12283  0.33315  Biso   1.000  H
  H13      1.0000 0.88107  0.45543  0.33448  Biso   1.000  H
  H14      1.0000 0.37965  0.03396  0.66258  Biso   1.000  H
  H15      1.0000 0.11935  0.53345  0.66244  Biso   1.000  H
  H16      1.0000 0.61551  0.95525  0.33488  Biso   1.000  H
  C9       1.0000 0.13427  0.37259  0.31685  Biso   1.000  C
  C10      1.0000 0.63092  0.11584  0.68227  Biso   1.000  C
  C11      1.0000 0.86841  0.61558  0.68234  Biso   1.000  C
  C12      1.0000 0.36274  0.87370  0.31654  Biso   1.000  C
  H17      1.0000 0.11234  0.23914  0.32637  Biso   1.000  H
  H18      1.0000 0.60767  0.25119  0.67488  Biso   1.000  H
  H19      1.0000 0.89159  0.75082  0.67483  Biso   1.000  H
  H20      1.0000 0.38317  0.74045  0.32647  Biso   1.000  H
  H21      1.0000 0.26461  0.40293  0.32643  Biso   1.000  H
  H22      1.0000 0.76209  0.08955  0.67261  Biso   1.000  H
  H23      1.0000 0.73710  0.58920  0.67281  Biso   1.000  H
  H24      1.0000 0.23213  0.90546  0.32558  Biso   1.000  H
  C13      1.0000 0.11427  0.39190  0.26673  Biso   1.000  C
  C14      1.0000 0.60904  0.08379  0.73192  Biso   1.000  C
  C15      1.0000 0.89111  0.58397  0.73197  Biso   1.000  C
  C16      1.0000 0.38567  0.89109  0.26645  Biso   1.000  C
  H25      1.0000 0.98600  0.35821  0.25609  Biso   1.000  H
  H26      1.0000 0.47957  0.11223  0.74260  Biso   1.000  H
  H27      1.0000 0.02071  0.61273  0.74249  Biso   1.000  H
  H28      1.0000 0.51434  0.85627  0.25639  Biso   1.000  H
  H29      1.0000 0.20291  0.30882  0.24907  Biso   1.000  H
  H30      1.0000 0.69501  0.16405  0.75128  Biso   1.000  H
  H31      1.0000 0.80534  0.66426  0.75137  Biso   1.000  H
  H32      1.0000 0.29752  0.80800  0.24863  Biso   1.000  H
  H33      1.0000 0.13876  0.52369  0.25625  Biso   1.000  H
  H34      1.0000 0.63553  0.95011  0.74024  Biso   1.000  H
  H35      1.0000 0.86490  0.45033  0.74041  Biso   1.000  H
  H36      1.0000 0.36258  0.02271  0.25561  Biso   1.000  H
  N1       1.0000 0.91805  0.57891  0.41802  Biso   1.000  N
  N2       1.0000 0.42135  0.93199  0.57724  Biso   1.000  N
  N3       1.0000 0.07568  0.43032  0.57729  Biso   1.000  N
  N4       1.0000 0.57607  0.08117  0.41792  Biso   1.000  N
  H37      1.0000 0.93735  0.70748  0.41132  Biso   1.000  H
  H38      1.0000 0.44020  0.80227  0.58223  Biso   1.000  H
  H39      1.0000 0.05650  0.30081  0.58258  Biso   1.000  H
  H40      1.0000 0.55746  0.20973  0.41102  Biso   1.000  H
  H41      1.0000 0.93302  0.56300  0.45136  Biso   1.000  H
  H42      1.0000 0.43880  0.95572  0.54429  Biso   1.000  H
  H43      1.0000 0.05760  0.45304  0.54432  Biso   1.000  H
  H44      1.0000 0.56035  0.06587  0.45126  Biso   1.000  H
  H45      1.0000 0.79290  0.55008  0.41072  Biso   1.000  H
  H46      1.0000 0.29570  0.95910  0.58437  Biso   1.000  H
  H47      1.0000 0.20151  0.45733  0.58419  Biso   1.000  H
  H48      1.0000 0.70112  0.05151  0.41081  Biso   1.000  H
  Br1      1.0000 0.47796  0.51624  0.59484  Biso   1.000  Br
  Br2      1.0000 0.97675  0.99142  0.40183  Biso   1.000  Br
  Br3      1.0000 0.51736  0.49330  0.40174  Biso   1.000  Br
  Br4      1.0000 0.01872  0.01505  0.59508  Biso   1.000  Br
  Br5      1.0000 0.71577  0.80970  0.50217  Biso   1.000  Br
  Br6      1.0000 0.19513  0.72610  0.49450  Biso   1.000  Br
  Br7      1.0000 0.29814  0.22682  0.49462  Biso   1.000  Br
  Br8      1.0000 0.77772  0.30947  0.50276  Biso   1.000  Br
  Ge1      1.0000 0.50219  0.48984  0.49890  Biso   1.000  Ge
  Ge2      1.0000 0.99283  0.98896  0.49842  Biso   1.000  Ge
