data_image0
_cell_length_a       8.02555
_cell_length_b       7.84844
_cell_length_c       30.0115
_cell_angle_alpha    90
_cell_angle_beta     90
_cell_angle_gamma    90

_symmetry_space_group_name_H-M    "P 1"
_symmetry_int_tables_number       1

loop_
  _symmetry_equiv_pos_as_xyz
  'x, y, z'

loop_
  _atom_site_label
  _atom_site_occupancy
  _atom_site_fract_x
  _atom_site_fract_y
  _atom_site_fract_z
  _atom_site_thermal_displace_type
  _atom_site_B_iso_or_equiv
  _atom_site_type_symbol
  C1       1.0000 0.02363  0.47160  0.39035  Biso   1.000  C
  C2       1.0000 0.52305  0.02737  0.60961  Biso   1.000  C
  C3       1.0000 0.97644  0.52800  0.60971  Biso   1.000  C
  C4       1.0000 0.47694  0.97217  0.39049  Biso   1.000  C
  H1       1.0000 0.99651  0.34294  0.40185  Biso   1.000  H
  H2       1.0000 0.49570  0.15595  0.59811  Biso   1.000  H
  H3       1.0000 0.00364  0.65657  0.59817  Biso   1.000  H
  H4       1.0000 0.50418  0.84354  0.40200  Biso   1.000  H
  H5       1.0000 0.14776  0.50624  0.40192  Biso   1.000  H
  H6       1.0000 0.64721  0.99295  0.59801  Biso   1.000  H
  H7       1.0000 0.85227  0.49342  0.59814  Biso   1.000  H
  H8       1.0000 0.35279  0.00666  0.40207  Biso   1.000  H
  C5       1.0000 0.00889  0.48667  0.34006  Biso   1.000  C
  C6       1.0000 0.50856  0.01265  0.65992  Biso   1.000  C
  C7       1.0000 0.99117  0.51316  0.66000  Biso   1.000  C
  C8       1.0000 0.49155  0.98694  0.34018  Biso   1.000  C
  H9       1.0000 0.03332  0.61876  0.33007  Biso   1.000  H
  H10      1.0000 0.53294  0.88060  0.66995  Biso   1.000  H
  H11      1.0000 0.96679  0.38110  0.67003  Biso   1.000  H
  H12      1.0000 0.46697  0.11896  0.33016  Biso   1.000  H
  H13      1.0000 0.88091  0.45674  0.32982  Biso   1.000  H
  H14      1.0000 0.38066  0.04276  0.67019  Biso   1.000  H
  H15      1.0000 0.11915  0.54321  0.67022  Biso   1.000  H
  H16      1.0000 0.61953  0.95709  0.32992  Biso   1.000  H
  C9       1.0000 0.13125  0.36684  0.31659  Biso   1.000  C
  C10      1.0000 0.63102  0.13262  0.68335  Biso   1.000  C
  C11      1.0000 0.86877  0.63305  0.68344  Biso   1.000  C
  C12      1.0000 0.36932  0.86683  0.31673  Biso   1.000  C
  H17      1.0000 0.10600  0.23594  0.32729  Biso   1.000  H
  H18      1.0000 0.60568  0.26351  0.67265  Biso   1.000  H
  H19      1.0000 0.89398  0.76393  0.67270  Biso   1.000  H
  H20      1.0000 0.39498  0.73596  0.32740  Biso   1.000  H
  H21      1.0000 0.25785  0.39703  0.32769  Biso   1.000  H
  H22      1.0000 0.75758  0.10247  0.67221  Biso   1.000  H
  H23      1.0000 0.74219  0.60279  0.67233  Biso   1.000  H
  H24      1.0000 0.24272  0.89666  0.32790  Biso   1.000  H
  C13      1.0000 0.12023  0.37935  0.26590  Biso   1.000  C
  C14      1.0000 0.62020  0.12025  0.73406  Biso   1.000  C
  C15      1.0000 0.87979  0.62075  0.73413  Biso   1.000  C
  C16      1.0000 0.37996  0.87948  0.26602  Biso   1.000  C
  H25      1.0000 0.99522  0.34690  0.25415  Biso   1.000  H
  H26      1.0000 0.49531  0.15297  0.74585  Biso   1.000  H
  H27      1.0000 0.00480  0.65320  0.74586  Biso   1.000  H
  H28      1.0000 0.50488  0.84705  0.25420  Biso   1.000  H
  H29      1.0000 0.20829  0.29273  0.24990  Biso   1.000  H
  H30      1.0000 0.70844  0.20676  0.75002  Biso   1.000  H
  H31      1.0000 0.79176  0.70746  0.75010  Biso   1.000  H
  H32      1.0000 0.29184  0.79288  0.25005  Biso   1.000  H
  H33      1.0000 0.14828  0.50843  0.25447  Biso   1.000  H
  H34      1.0000 0.64814  0.99115  0.74550  Biso   1.000  H
  H35      1.0000 0.85170  0.49172  0.74559  Biso   1.000  H
  H36      1.0000 0.35176  0.00859  0.25463  Biso   1.000  H
  N1       1.0000 0.90323  0.58826  0.41303  Biso   1.000  N
  N2       1.0000 0.40283  0.91056  0.58694  Biso   1.000  N
  N3       1.0000 0.09677  0.41123  0.58705  Biso   1.000  N
  N4       1.0000 0.59714  0.08902  0.41317  Biso   1.000  N
  H37      1.0000 0.92736  0.71515  0.40608  Biso   1.000  H
  H38      1.0000 0.42703  0.78369  0.59387  Biso   1.000  H
  H39      1.0000 0.07267  0.28437  0.59401  Biso   1.000  H
  H40      1.0000 0.57283  0.21587  0.40620  Biso   1.000  H
  H41      1.0000 0.91267  0.57510  0.44689  Biso   1.000  H
  H42      1.0000 0.41239  0.92381  0.55306  Biso   1.000  H
  H43      1.0000 0.08732  0.42431  0.55318  Biso   1.000  H
  H44      1.0000 0.58758  0.07585  0.44703  Biso   1.000  H
  H45      1.0000 0.78057  0.56025  0.40507  Biso   1.000  H
  H46      1.0000 0.28010  0.93855  0.59485  Biso   1.000  H
  H47      1.0000 0.21945  0.43928  0.59501  Biso   1.000  H
  H48      1.0000 0.71987  0.06110  0.40526  Biso   1.000  H
  Cl1      1.0000 0.48100  0.51098  0.59396  Biso   1.000  Cl
  Cl2      1.0000 0.98037  0.98861  0.40607  Biso   1.000  Cl
  Cl3      1.0000 0.51902  0.48873  0.40608  Biso   1.000  Cl
  Cl4      1.0000 0.01966  0.01120  0.59398  Biso   1.000  Cl
  I1       1.0000 0.69481  0.80750  0.50533  Biso   1.000  I
  I2       1.0000 0.19473  0.69181  0.49470  Biso   1.000  I
  I3       1.0000 0.30507  0.19195  0.49476  Biso   1.000  I
  I4       1.0000 0.80533  0.30761  0.50539  Biso   1.000  I
  Ge1      1.0000 0.50007  0.49950  0.50004  Biso   1.000  Ge
  Ge2      1.0000 0.99995  0.99948  0.50003  Biso   1.000  Ge
