data_image0
_cell_length_a       7.99902
_cell_length_b       7.74472
_cell_length_c       30.7016
_cell_angle_alpha    90
_cell_angle_beta     90
_cell_angle_gamma    90

_symmetry_space_group_name_H-M    "P 1"
_symmetry_int_tables_number       1

loop_
  _symmetry_equiv_pos_as_xyz
  'x, y, z'

loop_
  _atom_site_label
  _atom_site_occupancy
  _atom_site_fract_x
  _atom_site_fract_y
  _atom_site_fract_z
  _atom_site_thermal_displace_type
  _atom_site_B_iso_or_equiv
  _atom_site_type_symbol
  C1       1.0000 0.08259  0.47722  0.39327  Biso   1.000  C
  C2       1.0000 0.58338  0.02178  0.60680  Biso   1.000  C
  C3       1.0000 0.91485  0.52594  0.60780  Biso   1.000  C
  C4       1.0000 0.41508  0.97064  0.39223  Biso   1.000  C
  H1       1.0000 0.09683  0.34397  0.40384  Biso   1.000  H
  H2       1.0000 0.59698  0.15513  0.59626  Biso   1.000  H
  H3       1.0000 0.90524  0.65964  0.59719  Biso   1.000  H
  H4       1.0000 0.40530  0.83671  0.40264  Biso   1.000  H
  H5       1.0000 0.20077  0.54350  0.39821  Biso   1.000  H
  H6       1.0000 0.70195  0.95613  0.60193  Biso   1.000  H
  H7       1.0000 0.79219  0.46660  0.60528  Biso   1.000  H
  H8       1.0000 0.29249  0.03017  0.39483  Biso   1.000  H
  C5       1.0000 0.02449  0.48820  0.34607  Biso   1.000  C
  C6       1.0000 0.52492  0.01024  0.65394  Biso   1.000  C
  C7       1.0000 0.98363  0.51242  0.65391  Biso   1.000  C
  C8       1.0000 0.48375  0.98497  0.34612  Biso   1.000  C
  H9       1.0000 0.02047  0.62381  0.33593  Biso   1.000  H
  H10      1.0000 0.52089  0.87453  0.66402  Biso   1.000  H
  H11      1.0000 0.99397  0.37624  0.66312  Biso   1.000  H
  H12      1.0000 0.49346  0.12129  0.33698  Biso   1.000  H
  H13      1.0000 0.89709  0.43808  0.34336  Biso   1.000  H
  H14      1.0000 0.39743  0.06024  0.65660  Biso   1.000  H
  H15      1.0000 0.10953  0.56722  0.65527  Biso   1.000  H
  H16      1.0000 0.60993  0.93088  0.34466  Biso   1.000  H
  C9       1.0000 0.13966  0.38545  0.31568  Biso   1.000  C
  C10      1.0000 0.63978  0.11288  0.68443  Biso   1.000  C
  C11      1.0000 0.87032  0.60758  0.68630  Biso   1.000  C
  C12      1.0000 0.37066  0.88955  0.31372  Biso   1.000  C
  H17      1.0000 0.13606  0.24937  0.32526  Biso   1.000  H
  H18      1.0000 0.63622  0.24899  0.67487  Biso   1.000  H
  H19      1.0000 0.86709  0.74460  0.67767  Biso   1.000  H
  H20      1.0000 0.36808  0.75241  0.32226  Biso   1.000  H
  H21      1.0000 0.26896  0.42813  0.31991  Biso   1.000  H
  H22      1.0000 0.76914  0.07012  0.68030  Biso   1.000  H
  H23      1.0000 0.74204  0.55968  0.68330  Biso   1.000  H
  H24      1.0000 0.24221  0.93684  0.31685  Biso   1.000  H
  C13      1.0000 0.08953  0.40236  0.26782  Biso   1.000  C
  C14      1.0000 0.58908  0.09568  0.73224  Biso   1.000  C
  C15      1.0000 0.92968  0.58759  0.73335  Biso   1.000  C
  C16      1.0000 0.42934  0.91048  0.26663  Biso   1.000  C
  H25      1.0000 0.96100  0.35883  0.26260  Biso   1.000  H
  H26      1.0000 0.46056  0.13941  0.73741  Biso   1.000  H
  H27      1.0000 0.05733  0.63570  0.73727  Biso   1.000  H
  H28      1.0000 0.55715  0.86298  0.26256  Biso   1.000  H
  H29      1.0000 0.17110  0.32483  0.24701  Biso   1.000  H
  H30      1.0000 0.67065  0.17277  0.75315  Biso   1.000  H
  H31      1.0000 0.84935  0.65937  0.75571  Biso   1.000  H
  H32      1.0000 0.34905  0.83854  0.24429  Biso   1.000  H
  H33      1.0000 0.09788  0.53654  0.25688  Biso   1.000  H
  H34      1.0000 0.59714  0.96140  0.74310  Biso   1.000  H
  H35      1.0000 0.92839  0.45205  0.74336  Biso   1.000  H
  H36      1.0000 0.42731  0.04617  0.25673  Biso   1.000  H
  N1       1.0000 0.96013  0.55873  0.42396  Biso   1.000  N
  N2       1.0000 0.46177  0.93963  0.57602  Biso   1.000  N
  N3       1.0000 0.02282  0.43589  0.57502  Biso   1.000  N
  N4       1.0000 0.52332  0.05974  0.42514  Biso   1.000  N
  H37      1.0000 0.94438  0.68831  0.41657  Biso   1.000  H
  H38      1.0000 0.44622  0.81000  0.58335  Biso   1.000  H
  H39      1.0000 0.03794  0.30691  0.58332  Biso   1.000  H
  H40      1.0000 0.53868  0.18882  0.41697  Biso   1.000  H
  H41      1.0000 0.00273  0.55439  0.45527  Biso   1.000  H
  H42      1.0000 0.50465  0.94426  0.54474  Biso   1.000  H
  H43      1.0000 0.96830  0.43831  0.54494  Biso   1.000  H
  H44      1.0000 0.46863  0.05717  0.45520  Biso   1.000  H
  H45      1.0000 0.84347  0.50259  0.42205  Biso   1.000  H
  H46      1.0000 0.34484  0.99529  0.57784  Biso   1.000  H
  H47      1.0000 0.14097  0.48834  0.57332  Biso   1.000  H
  H48      1.0000 0.64130  0.00702  0.42684  Biso   1.000  H
  I1       1.0000 0.44480  0.49799  0.59723  Biso   1.000  I
  I2       1.0000 0.94547  0.00038  0.40308  Biso   1.000  I
  I3       1.0000 0.55042  0.49216  0.39479  Biso   1.000  I
  I4       1.0000 0.05192  0.00280  0.60555  Biso   1.000  I
  Cl1      1.0000 0.69577  0.75212  0.50245  Biso   1.000  Cl
  Cl2      1.0000 0.19585  0.74495  0.49763  Biso   1.000  Cl
  Cl3      1.0000 0.23980  0.20185  0.49576  Biso   1.000  Cl
  Cl4      1.0000 0.73900  0.29463  0.50424  Biso   1.000  Cl
  Ge1      1.0000 0.51642  0.50341  0.49879  Biso   1.000  Ge
  Ge2      1.0000 0.01684  0.99405  0.50144  Biso   1.000  Ge
