data_image0
_cell_length_a       7.59735
_cell_length_b       7.56081
_cell_length_c       29.9391
_cell_angle_alpha    90
_cell_angle_beta     90
_cell_angle_gamma    90

_symmetry_space_group_name_H-M    "P 1"
_symmetry_int_tables_number       1

loop_
  _symmetry_equiv_pos_as_xyz
  'x, y, z'

loop_
  _atom_site_label
  _atom_site_occupancy
  _atom_site_fract_x
  _atom_site_fract_y
  _atom_site_fract_z
  _atom_site_thermal_displace_type
  _atom_site_B_iso_or_equiv
  _atom_site_type_symbol
  C1       1.0000 0.04328  0.46469  0.39738  Biso   1.000  C
  C2       1.0000 0.54265  0.03552  0.60230  Biso   1.000  C
  C3       1.0000 0.95378  0.53477  0.60370  Biso   1.000  C
  C4       1.0000 0.45350  0.96722  0.39624  Biso   1.000  C
  H1       1.0000 0.02131  0.32967  0.40857  Biso   1.000  H
  H2       1.0000 0.52058  0.17053  0.59113  Biso   1.000  H
  H3       1.0000 0.97351  0.66989  0.59232  Biso   1.000  H
  H4       1.0000 0.47327  0.83227  0.40774  Biso   1.000  H
  H5       1.0000 0.17434  0.50518  0.40774  Biso   1.000  H
  H6       1.0000 0.67367  0.99508  0.59191  Biso   1.000  H
  H7       1.0000 0.81977  0.49555  0.59575  Biso   1.000  H
  H8       1.0000 0.31934  0.00638  0.40403  Biso   1.000  H
  C5       1.0000 0.01893  0.48174  0.34711  Biso   1.000  C
  C6       1.0000 0.51867  0.01845  0.65260  Biso   1.000  C
  C7       1.0000 0.99207  0.51680  0.65337  Biso   1.000  C
  C8       1.0000 0.49230  0.98447  0.34656  Biso   1.000  C
  H9       1.0000 0.03838  0.61986  0.33722  Biso   1.000  H
  H10      1.0000 0.53832  0.88032  0.66247  Biso   1.000  H
  H11      1.0000 0.97670  0.37846  0.66348  Biso   1.000  H
  H12      1.0000 0.47721  0.12265  0.33630  Biso   1.000  H
  H13      1.0000 0.88340  0.44639  0.33822  Biso   1.000  H
  H14      1.0000 0.38315  0.05358  0.66156  Biso   1.000  H
  H15      1.0000 0.12917  0.55346  0.66001  Biso   1.000  H
  H16      1.0000 0.62937  0.94744  0.34002  Biso   1.000  H
  C9       1.0000 0.14794  0.36229  0.32192  Biso   1.000  C
  C10      1.0000 0.64775  0.13800  0.67776  Biso   1.000  C
  C11      1.0000 0.86853  0.63485  0.68071  Biso   1.000  C
  C12      1.0000 0.36877  0.86614  0.31925  Biso   1.000  C
  H17      1.0000 0.12525  0.22541  0.33226  Biso   1.000  H
  H18      1.0000 0.62483  0.27486  0.66745  Biso   1.000  H
  H19      1.0000 0.88698  0.77202  0.67006  Biso   1.000  H
  H20      1.0000 0.38706  0.72907  0.32998  Biso   1.000  H
  H21      1.0000 0.28220  0.39553  0.33204  Biso   1.000  H
  H22      1.0000 0.78194  0.10488  0.66758  Biso   1.000  H
  H23      1.0000 0.73207  0.60040  0.67282  Biso   1.000  H
  H24      1.0000 0.23224  0.90069  0.32705  Biso   1.000  H
  C13      1.0000 0.13048  0.37760  0.27127  Biso   1.000  C
  C14      1.0000 0.63061  0.12241  0.72840  Biso   1.000  C
  C15      1.0000 0.89946  0.61983  0.73096  Biso   1.000  C
  C16      1.0000 0.39994  0.88046  0.26897  Biso   1.000  C
  H25      1.0000 0.99870  0.33959  0.26015  Biso   1.000  H
  H26      1.0000 0.49886  0.16011  0.73960  Biso   1.000  H
  H27      1.0000 0.03367  0.65868  0.73975  Biso   1.000  H
  H28      1.0000 0.53417  0.84148  0.26024  Biso   1.000  H
  H29      1.0000 0.22510  0.29193  0.25435  Biso   1.000  H
  H30      1.0000 0.72518  0.20812  0.74532  Biso   1.000  H
  H31      1.0000 0.80918  0.70504  0.74949  Biso   1.000  H
  H32      1.0000 0.30976  0.79490  0.25051  Biso   1.000  H
  H33      1.0000 0.15446  0.51301  0.26006  Biso   1.000  H
  H34      1.0000 0.65488  0.98698  0.73957  Biso   1.000  H
  H35      1.0000 0.87945  0.48438  0.74260  Biso   1.000  H
  H36      1.0000 0.37989  0.01570  0.25717  Biso   1.000  H
  N1       1.0000 0.91551  0.57927  0.42170  Biso   1.000  N
  N2       1.0000 0.41494  0.92092  0.57800  Biso   1.000  N
  N3       1.0000 0.07286  0.42013  0.57659  Biso   1.000  N
  N4       1.0000 0.57197  0.08224  0.42344  Biso   1.000  N
  H37      1.0000 0.93535  0.71170  0.41458  Biso   1.000  H
  H38      1.0000 0.43470  0.78848  0.58513  Biso   1.000  H
  H39      1.0000 0.05471  0.28732  0.58380  Biso   1.000  H
  H40      1.0000 0.55368  0.21500  0.41617  Biso   1.000  H
  H41      1.0000 0.92918  0.56559  0.45539  Biso   1.000  H
  H42      1.0000 0.42865  0.93459  0.54431  Biso   1.000  H
  H43      1.0000 0.04813  0.43601  0.54338  Biso   1.000  H
  H44      1.0000 0.54682  0.06654  0.45664  Biso   1.000  H
  H45      1.0000 0.78632  0.54797  0.41395  Biso   1.000  H
  H46      1.0000 0.28568  0.95230  0.58572  Biso   1.000  H
  H47      1.0000 0.20402  0.45060  0.58194  Biso   1.000  H
  H48      1.0000 0.70323  0.05196  0.41821  Biso   1.000  H
  Cl1      1.0000 0.47326  0.51295  0.59203  Biso   1.000  Cl
  Cl2      1.0000 0.97274  0.98728  0.40777  Biso   1.000  Cl
  Cl3      1.0000 0.51951  0.48907  0.40662  Biso   1.000  Cl
  Cl4      1.0000 0.01939  0.01216  0.59323  Biso   1.000  Cl
  Cl5      1.0000 0.67395  0.77601  0.50073  Biso   1.000  Cl
  Cl6      1.0000 0.17438  0.72462  0.49903  Biso   1.000  Cl
  Cl7      1.0000 0.26200  0.18377  0.49581  Biso   1.000  Cl
  Cl8      1.0000 0.76230  0.31681  0.50406  Biso   1.000  Cl
  Ge1      1.0000 0.50566  0.50577  0.50020  Biso   1.000  Ge
  Ge2      1.0000 0.00546  0.99469  0.49956  Biso   1.000  Ge
