data_image0
_cell_length_a       8.21114
_cell_length_b       8.11977
_cell_length_c       30.7877
_cell_angle_alpha    90
_cell_angle_beta     90
_cell_angle_gamma    90

_symmetry_space_group_name_H-M    "P 1"
_symmetry_int_tables_number       1

loop_
  _symmetry_equiv_pos_as_xyz
  'x, y, z'

loop_
  _atom_site_label
  _atom_site_occupancy
  _atom_site_fract_x
  _atom_site_fract_y
  _atom_site_fract_z
  _atom_site_thermal_displace_type
  _atom_site_B_iso_or_equiv
  _atom_site_type_symbol
  C1       1.0000 0.03169  0.47388  0.38841  Biso   1.000  C
  C2       1.0000 0.53171  0.02425  0.61172  Biso   1.000  C
  C3       1.0000 0.96881  0.52535  0.61164  Biso   1.000  C
  C4       1.0000 0.46876  0.97297  0.38847  Biso   1.000  C
  H1       1.0000 0.00976  0.34532  0.39643  Biso   1.000  H
  H2       1.0000 0.50966  0.15282  0.60373  Biso   1.000  H
  H3       1.0000 0.99112  0.65387  0.60366  Biso   1.000  H
  H4       1.0000 0.49124  0.84440  0.39641  Biso   1.000  H
  H5       1.0000 0.15561  0.50473  0.39788  Biso   1.000  H
  H6       1.0000 0.65554  0.99343  0.60217  Biso   1.000  H
  H7       1.0000 0.84505  0.49458  0.60203  Biso   1.000  H
  H8       1.0000 0.34493  0.00337  0.39811  Biso   1.000  H
  C5       1.0000 0.00179  0.50827  0.34048  Biso   1.000  C
  C6       1.0000 0.50198  0.98972  0.65964  Biso   1.000  C
  C7       1.0000 0.99811  0.49074  0.65958  Biso   1.000  C
  C8       1.0000 0.49809  0.00769  0.34054  Biso   1.000  C
  H9       1.0000 0.02286  0.63910  0.33381  Biso   1.000  H
  H10      1.0000 0.52314  0.85888  0.66629  Biso   1.000  H
  H11      1.0000 0.97679  0.35990  0.66619  Biso   1.000  H
  H12      1.0000 0.47679  0.13853  0.33393  Biso   1.000  H
  H13      1.0000 0.87409  0.48273  0.33257  Biso   1.000  H
  H14      1.0000 0.37422  0.01511  0.66756  Biso   1.000  H
  H15      1.0000 0.12579  0.51600  0.66761  Biso   1.000  H
  H16      1.0000 0.62575  0.98234  0.33254  Biso   1.000  H
  C9       1.0000 0.11334  0.40297  0.31176  Biso   1.000  C
  C10      1.0000 0.61340  0.09518  0.68831  Biso   1.000  C
  C11      1.0000 0.88637  0.59606  0.68820  Biso   1.000  C
  C12      1.0000 0.38648  0.90238  0.31185  Biso   1.000  C
  H17      1.0000 0.09159  0.27266  0.31883  Biso   1.000  H
  H18      1.0000 0.59179  0.22540  0.68111  Biso   1.000  H
  H19      1.0000 0.90848  0.72635  0.68120  Biso   1.000  H
  H20      1.0000 0.40880  0.77203  0.31875  Biso   1.000  H
  H21      1.0000 0.24028  0.42765  0.32039  Biso   1.000  H
  H22      1.0000 0.74035  0.07022  0.67975  Biso   1.000  H
  H23      1.0000 0.75955  0.57160  0.67942  Biso   1.000  H
  H24      1.0000 0.25957  0.92639  0.32062  Biso   1.000  H
  C13      1.0000 0.08716  0.43582  0.26342  Biso   1.000  C
  C14      1.0000 0.58700  0.06307  0.73668  Biso   1.000  C
  C15      1.0000 0.91162  0.56297  0.73655  Biso   1.000  C
  C16      1.0000 0.41180  0.93598  0.26351  Biso   1.000  C
  H25      1.0000 0.96137  0.41007  0.25397  Biso   1.000  H
  H26      1.0000 0.46120  0.08899  0.74608  Biso   1.000  H
  H27      1.0000 0.03728  0.58843  0.74619  Biso   1.000  H
  H28      1.0000 0.53749  0.91069  0.25388  Biso   1.000  H
  H29      1.0000 0.16684  0.35856  0.24360  Biso   1.000  H
  H30      1.0000 0.66664  0.14073  0.75640  Biso   1.000  H
  H31      1.0000 0.83177  0.64048  0.75625  Biso   1.000  H
  H32      1.0000 0.33202  0.85871  0.24373  Biso   1.000  H
  H33      1.0000 0.11290  0.56452  0.25546  Biso   1.000  H
  H34      1.0000 0.61279  0.93456  0.74481  Biso   1.000  H
  H35      1.0000 0.88538  0.43436  0.74449  Biso   1.000  H
  H36      1.0000 0.38553  0.06470  0.25568  Biso   1.000  H
  N1       1.0000 0.92121  0.57363  0.41663  Biso   1.000  N
  N2       1.0000 0.42097  0.92453  0.58356  Biso   1.000  N
  N3       1.0000 0.07967  0.42546  0.58359  Biso   1.000  N
  N4       1.0000 0.57948  0.07275  0.41662  Biso   1.000  N
  H37      1.0000 0.94069  0.69837  0.41227  Biso   1.000  H
  H38      1.0000 0.44047  0.79977  0.58792  Biso   1.000  H
  H39      1.0000 0.05994  0.30073  0.58793  Biso   1.000  H
  H40      1.0000 0.55972  0.19748  0.41232  Biso   1.000  H
  H41      1.0000 0.94056  0.54750  0.44872  Biso   1.000  H
  H42      1.0000 0.43991  0.95065  0.55146  Biso   1.000  H
  H43      1.0000 0.06102  0.45145  0.55146  Biso   1.000  H
  H44      1.0000 0.56057  0.04651  0.44873  Biso   1.000  H
  H45      1.0000 0.79989  0.54951  0.41012  Biso   1.000  H
  H46      1.0000 0.29970  0.94853  0.59018  Biso   1.000  H
  H47      1.0000 0.20098  0.44920  0.59024  Biso   1.000  H
  H48      1.0000 0.70077  0.04893  0.41002  Biso   1.000  H
  I1       1.0000 0.49299  0.50350  0.60215  Biso   1.000  I
  I2       1.0000 0.99302  0.99467  0.39806  Biso   1.000  I
  I3       1.0000 0.50764  0.49390  0.39808  Biso   1.000  I
  I4       1.0000 0.00754  0.00418  0.60213  Biso   1.000  I
  I5       1.0000 0.70308  0.79787  0.50289  Biso   1.000  I
  I6       1.0000 0.20337  0.70019  0.49728  Biso   1.000  I
  I7       1.0000 0.29830  0.20010  0.49737  Biso   1.000  I
  I8       1.0000 0.79843  0.29780  0.50280  Biso   1.000  I
  Ge1      1.0000 0.49988  0.49918  0.50006  Biso   1.000  Ge
  Ge2      1.0000 0.99998  0.99973  0.50018  Biso   1.000  Ge
