data_image0
_cell_length_a       5.49871
_cell_length_b       5.49871
_cell_length_c       15
_cell_angle_alpha    90
_cell_angle_beta     90
_cell_angle_gamma    60

_symmetry_space_group_name_H-M    "P 1"
_symmetry_int_tables_number       1

loop_
  _symmetry_equiv_pos_as_xyz
  'x, y, z'

loop_
  _atom_site_label
  _atom_site_occupancy
  _atom_site_fract_x
  _atom_site_fract_y
  _atom_site_fract_z
  _atom_site_thermal_displace_type
  _atom_site_B_iso_or_equiv
  _atom_site_type_symbol
  C1       1.0000 0.98307  0.98307  0.50000  Biso   1.000  C
  P1       1.0000 0.16667  0.16667  0.50000  Biso   1.000  P
  C2       1.0000 0.53387  0.98306  0.50000  Biso   1.000  C
  C3       1.0000 0.98306  0.53387  0.50000  Biso   1.000  C
  C4       1.0000 0.68361  0.13280  0.50000  Biso   1.000  C
  C5       1.0000 0.13280  0.68361  0.50000  Biso   1.000  C
  P2       1.0000 0.49999  0.49999  0.50000  Biso   1.000  P
  C6       1.0000 0.68360  0.68360  0.50000  Biso   1.000  C
