data_image0
_cell_length_a       3.90194
_cell_length_b       3.90325
_cell_length_c       18.8558
_cell_angle_alpha    90
_cell_angle_beta     90
_cell_angle_gamma    119.989

_symmetry_space_group_name_H-M    "P 1"
_symmetry_int_tables_number       1

loop_
  _symmetry_equiv_pos_as_xyz
  'x, y, z'

loop_
  _atom_site_label
  _atom_site_occupancy
  _atom_site_fract_x
  _atom_site_fract_y
  _atom_site_fract_z
  _atom_site_thermal_displace_type
  _atom_site_B_iso_or_equiv
  _atom_site_type_symbol
  Br1      1.0000 0.00004  0.00000  0.34976  Biso   1.000  Br
  Br2      1.0000 0.33330  0.66667  0.65031  Biso   1.000  Br
  Cd1      1.0000 0.99972  0.00040  0.55975  Biso   1.000  Cd
  Cd2      1.0000 0.33362  0.66626  0.44032  Biso   1.000  Cd
