data_image0
_cell_length_a       3.74945
_cell_length_b       3.75086
_cell_length_c       18.8558
_cell_angle_alpha    90
_cell_angle_beta     90
_cell_angle_gamma    119.988

_symmetry_space_group_name_H-M    "P 1"
_symmetry_int_tables_number       1

loop_
  _symmetry_equiv_pos_as_xyz
  'x, y, z'

loop_
  _atom_site_label
  _atom_site_occupancy
  _atom_site_fract_x
  _atom_site_fract_y
  _atom_site_fract_z
  _atom_site_thermal_displace_type
  _atom_site_B_iso_or_equiv
  _atom_site_type_symbol
  Cl1      1.0000 0.99992  0.00014  0.35580  Biso   1.000  Cl
  Cl2      1.0000 0.33341  0.66652  0.64427  Biso   1.000  Cl
  Cd1      1.0000 0.99980  0.00030  0.56023  Biso   1.000  Cd
  Cd2      1.0000 0.33353  0.66636  0.43984  Biso   1.000  Cd
