data_image0
_cell_length_a       4.16674
_cell_length_b       4.16756
_cell_length_c       18.8558
_cell_angle_alpha    90
_cell_angle_beta     90
_cell_angle_gamma    119.993

_symmetry_space_group_name_H-M    "P 1"
_symmetry_int_tables_number       1

loop_
  _symmetry_equiv_pos_as_xyz
  'x, y, z'

loop_
  _atom_site_label
  _atom_site_occupancy
  _atom_site_fract_x
  _atom_site_fract_y
  _atom_site_fract_z
  _atom_site_thermal_displace_type
  _atom_site_B_iso_or_equiv
  _atom_site_type_symbol
  I1       1.0000 0.00030  0.99952  0.34263  Biso   1.000  I
  I2       1.0000 0.33304  0.66715  0.65744  Biso   1.000  I
  Cd1      1.0000 0.99940  0.00091  0.55924  Biso   1.000  Cd
  Cd2      1.0000 0.33393  0.66576  0.44083  Biso   1.000  Cd
