data_image0
_cell_length_a       7.11173
_cell_length_b       7.11317
_cell_length_c       18.4116
_cell_angle_alpha    90
_cell_angle_beta     90
_cell_angle_gamma    119.993

_symmetry_space_group_name_H-M    "P 1"
_symmetry_int_tables_number       1

loop_
  _symmetry_equiv_pos_as_xyz
  'x, y, z'

loop_
  _atom_site_label
  _atom_site_occupancy
  _atom_site_fract_x
  _atom_site_fract_y
  _atom_site_fract_z
  _atom_site_thermal_displace_type
  _atom_site_B_iso_or_equiv
  _atom_site_type_symbol
  Cd1      1.0000 0.00004  0.00000  0.50030  Biso   1.000  Cd
  Cd2      1.0000 0.33330  0.66668  0.49971  Biso   1.000  Cd
  P1       1.0000 0.66668  0.33335  0.43719  Biso   1.000  P
  P2       1.0000 0.66666  0.33333  0.56281  Biso   1.000  P
  Te1      1.0000 0.33628  0.00364  0.39714  Biso   1.000  Te
  Te2      1.0000 0.99640  0.33266  0.39715  Biso   1.000  Te
  Te3      1.0000 0.66730  0.66368  0.39716  Biso   1.000  Te
  Te4      1.0000 0.99711  0.66299  0.60286  Biso   1.000  Te
  Te5      1.0000 0.33699  0.33412  0.60285  Biso   1.000  Te
  Te6      1.0000 0.66594  0.00295  0.60285  Biso   1.000  Te
