data_image0
_cell_length_a       6.29058
_cell_length_b       6.29228
_cell_length_c       18.3718
_cell_angle_alpha    90
_cell_angle_beta     90
_cell_angle_gamma    119.991

_symmetry_space_group_name_H-M    "P 1"
_symmetry_int_tables_number       1

loop_
  _symmetry_equiv_pos_as_xyz
  'x, y, z'

loop_
  _atom_site_label
  _atom_site_occupancy
  _atom_site_fract_x
  _atom_site_fract_y
  _atom_site_fract_z
  _atom_site_thermal_displace_type
  _atom_site_B_iso_or_equiv
  _atom_site_type_symbol
  Cd1      1.0000 0.00002  1.00000  0.50044  Biso   1.000  Cd
  Cd2      1.0000 0.33330  0.66664  0.49979  Biso   1.000  Cd
  P1       1.0000 0.66667  0.33334  0.43874  Biso   1.000  P
  P2       1.0000 0.66667  0.33336  0.56166  Biso   1.000  P
  S1       1.0000 0.35381  0.02106  0.40730  Biso   1.000  S
  S2       1.0000 0.97899  0.33275  0.40730  Biso   1.000  S
  S3       1.0000 0.66720  0.64614  0.40730  Biso   1.000  S
  S4       1.0000 0.97937  0.64598  0.59300  Biso   1.000  S
  S5       1.0000 0.35400  0.33341  0.59299  Biso   1.000  S
  S6       1.0000 0.66666  0.02072  0.59298  Biso   1.000  S
