data_image0
_cell_length_a       6.60488
_cell_length_b       6.6062
_cell_length_c       18.4116
_cell_angle_alpha    90
_cell_angle_beta     90
_cell_angle_gamma    119.993

_symmetry_space_group_name_H-M    "P 1"
_symmetry_int_tables_number       1

loop_
  _symmetry_equiv_pos_as_xyz
  'x, y, z'

loop_
  _atom_site_label
  _atom_site_occupancy
  _atom_site_fract_x
  _atom_site_fract_y
  _atom_site_fract_z
  _atom_site_thermal_displace_type
  _atom_site_B_iso_or_equiv
  _atom_site_type_symbol
  Cd1      1.0000 0.00004  0.99999  0.50021  Biso   1.000  Cd
  Cd2      1.0000 0.33330  0.66669  0.49981  Biso   1.000  Cd
  P1       1.0000 0.66667  0.33334  0.43797  Biso   1.000  P
  P2       1.0000 0.66667  0.33333  0.56202  Biso   1.000  P
  Se1      1.0000 0.34542  0.01250  0.40291  Biso   1.000  Se
  Se2      1.0000 0.98752  0.33293  0.40292  Biso   1.000  Se
  Se3      1.0000 0.66701  0.65452  0.40292  Biso   1.000  Se
  Se4      1.0000 0.98797  0.65410  0.59709  Biso   1.000  Se
  Se5      1.0000 0.34589  0.33387  0.59709  Biso   1.000  Se
  Se6      1.0000 0.66621  0.01210  0.59708  Biso   1.000  Se
