data_image0
_cell_length_a       4.45265
_cell_length_b       4.45477
_cell_length_c       18.8558
_cell_angle_alpha    90
_cell_angle_beta     90
_cell_angle_gamma    119.984

_symmetry_space_group_name_H-M    "P 1"
_symmetry_int_tables_number       1

loop_
  _symmetry_equiv_pos_as_xyz
  'x, y, z'

loop_
  _atom_site_label
  _atom_site_occupancy
  _atom_site_fract_x
  _atom_site_fract_y
  _atom_site_fract_z
  _atom_site_thermal_displace_type
  _atom_site_B_iso_or_equiv
  _atom_site_type_symbol
  Se1      1.0000 0.00002  0.00012  0.40488  Biso   1.000  Se
  Se2      1.0000 0.33331  0.66654  0.59520  Biso   1.000  Se
  Cd1      1.0000 0.99996  0.00018  0.55817  Biso   1.000  Cd
  Cd2      1.0000 0.33338  0.66649  0.44190  Biso   1.000  Cd
