data_image0
_cell_length_a       4.3155
_cell_length_b       4.31804
_cell_length_c       18.8558
_cell_angle_alpha    90
_cell_angle_beta     90
_cell_angle_gamma    119.981

_symmetry_space_group_name_H-M    "P 1"
_symmetry_int_tables_number       1

loop_
  _symmetry_equiv_pos_as_xyz
  'x, y, z'

loop_
  _atom_site_label
  _atom_site_occupancy
  _atom_site_fract_x
  _atom_site_fract_y
  _atom_site_fract_z
  _atom_site_thermal_displace_type
  _atom_site_B_iso_or_equiv
  _atom_site_type_symbol
  S1       1.0000 0.00005  0.00016  0.41419  Biso   1.000  S
  S2       1.0000 0.33329  0.66650  0.58589  Biso   1.000  S
  Cd1      1.0000 0.99997  0.00018  0.56340  Biso   1.000  Cd
  Cd2      1.0000 0.33336  0.66648  0.43668  Biso   1.000  Cd
