data_image0
_cell_length_a       5.97252
_cell_length_b       6.47178
_cell_length_c       16.6077
_cell_angle_alpha    90
_cell_angle_beta     90
_cell_angle_gamma    90

_symmetry_space_group_name_H-M    "P 1"
_symmetry_int_tables_number       1

loop_
  _symmetry_equiv_pos_as_xyz
  'x, y, z'

loop_
  _atom_site_label
  _atom_site_occupancy
  _atom_site_fract_x
  _atom_site_fract_y
  _atom_site_fract_z
  _atom_site_thermal_displace_type
  _atom_site_B_iso_or_equiv
  _atom_site_type_symbol
  Cd1      1.0000 0.50002  0.00002  0.49997  Biso   1.000  Cd
  Cd2      1.0000 0.99998  0.50002  0.49997  Biso   1.000  Cd
  Te1      1.0000 0.99997  0.10933  0.42780  Biso   1.000  Te
  Te2      1.0000 0.50011  0.39070  0.57212  Biso   1.000  Te
  Te3      1.0000 0.00005  0.89071  0.57214  Biso   1.000  Te
  Te4      1.0000 0.49987  0.60934  0.42782  Biso   1.000  Te
