data_image0
_cell_length_a       4.66875
_cell_length_b       4.67029
_cell_length_c       18.8558
_cell_angle_alpha    90
_cell_angle_beta     90
_cell_angle_gamma    119.989

_symmetry_space_group_name_H-M    "P 1"
_symmetry_int_tables_number       1

loop_
  _symmetry_equiv_pos_as_xyz
  'x, y, z'

loop_
  _atom_site_label
  _atom_site_occupancy
  _atom_site_fract_x
  _atom_site_fract_y
  _atom_site_fract_z
  _atom_site_thermal_displace_type
  _atom_site_B_iso_or_equiv
  _atom_site_type_symbol
  Te1      1.0000 0.00002  0.00007  0.39432  Biso   1.000  Te
  Te2      1.0000 0.33331  0.66660  0.60576  Biso   1.000  Te
  Cd1      1.0000 0.99997  0.00013  0.55575  Biso   1.000  Cd
  Cd2      1.0000 0.33336  0.66654  0.44430  Biso   1.000  Cd
