data_image0
_cell_length_a       3.75049
_cell_length_b       3.75007
_cell_length_c       18.8558
_cell_angle_alpha    90
_cell_angle_beta     90
_cell_angle_gamma    120.004

_symmetry_space_group_name_H-M    "P 1"
_symmetry_int_tables_number       1

loop_
  _symmetry_equiv_pos_as_xyz
  'x, y, z'

loop_
  _atom_site_label
  _atom_site_occupancy
  _atom_site_fract_x
  _atom_site_fract_y
  _atom_site_fract_z
  _atom_site_thermal_displace_type
  _atom_site_B_iso_or_equiv
  _atom_site_type_symbol
  Cl1      1.0000 0.99945  0.00055  0.36909  Biso   1.000  Cl
  Cl2      1.0000 0.33389  0.66610  0.63098  Biso   1.000  Cl
  Ge1      1.0000 0.99974  0.00024  0.54338  Biso   1.000  Ge
  Ge2      1.0000 0.33358  0.66643  0.45668  Biso   1.000  Ge
