data_image0
_cell_length_a       4.75177
_cell_length_b       3.40398
_cell_length_c       21.3418
_cell_angle_alpha    90
_cell_angle_beta     90
_cell_angle_gamma    90

_symmetry_space_group_name_H-M    "P 1"
_symmetry_int_tables_number       1

loop_
  _symmetry_equiv_pos_as_xyz
  'x, y, z'

loop_
  _atom_site_label
  _atom_site_occupancy
  _atom_site_fract_x
  _atom_site_fract_y
  _atom_site_fract_z
  _atom_site_thermal_displace_type
  _atom_site_B_iso_or_equiv
  _atom_site_type_symbol
  Co1      1.0000 0.50000  0.00000  0.44913  Biso   1.000  Co
  Co2      1.0000 0.00000  0.50000  0.55087  Biso   1.000  Co
  Se1      1.0000 0.50000  0.50000  0.52380  Biso   1.000  Se
  Se2      1.0000 0.00000  0.00000  0.47620  Biso   1.000  Se
  Cl1      1.0000 0.50000  0.50000  0.37720  Biso   1.000  Cl
  Cl2      1.0000 0.00000  0.00000  0.62280  Biso   1.000  Cl
