data_image0
_cell_length_a       3.20602
_cell_length_b       3.20663
_cell_length_c       18.8558
_cell_angle_alpha    90
_cell_angle_beta     90
_cell_angle_gamma    119.994

_symmetry_space_group_name_H-M    "P 1"
_symmetry_int_tables_number       1

loop_
  _symmetry_equiv_pos_as_xyz
  'x, y, z'

loop_
  _atom_site_label
  _atom_site_occupancy
  _atom_site_fract_x
  _atom_site_fract_y
  _atom_site_fract_z
  _atom_site_thermal_displace_type
  _atom_site_B_iso_or_equiv
  _atom_site_type_symbol
  Cl1      1.0000 0.99979  0.99999  0.37814  Biso   1.000  Cl
  Cl2      1.0000 0.33354  0.66668  0.62193  Biso   1.000  Cl
  Co1      1.0000 0.99992  0.00018  0.54476  Biso   1.000  Co
  Co2      1.0000 0.33342  0.66648  0.45534  Biso   1.000  Co
