data_image0
_cell_length_a       2.70726
_cell_length_b       2.70689
_cell_length_c       18.8558
_cell_angle_alpha    90
_cell_angle_beta     90
_cell_angle_gamma    120.005

_symmetry_space_group_name_H-M    "P 1"
_symmetry_int_tables_number       1

loop_
  _symmetry_equiv_pos_as_xyz
  'x, y, z'

loop_
  _atom_site_label
  _atom_site_occupancy
  _atom_site_fract_x
  _atom_site_fract_y
  _atom_site_fract_z
  _atom_site_thermal_displace_type
  _atom_site_B_iso_or_equiv
  _atom_site_type_symbol
  F1       1.0000 0.99996  0.00027  0.37712  Biso   1.000  F
  F2       1.0000 0.33342  0.66627  0.62307  Biso   1.000  F
  Co1      1.0000 0.00002  0.99986  0.55508  Biso   1.000  Co
  Co2      1.0000 0.33336  0.66669  0.44511  Biso   1.000  Co
