data_image0
_cell_length_a       3.8884
_cell_length_b       3.88924
_cell_length_c       18.8558
_cell_angle_alpha    90
_cell_angle_beta     90
_cell_angle_gamma    119.993

_symmetry_space_group_name_H-M    "P 1"
_symmetry_int_tables_number       1

loop_
  _symmetry_equiv_pos_as_xyz
  'x, y, z'

loop_
  _atom_site_label
  _atom_site_occupancy
  _atom_site_fract_x
  _atom_site_fract_y
  _atom_site_fract_z
  _atom_site_thermal_displace_type
  _atom_site_B_iso_or_equiv
  _atom_site_type_symbol
  I1       1.0000 0.00001  0.00002  0.39100  Biso   1.000  I
  I2       1.0000 0.33332  0.66665  0.60907  Biso   1.000  I
  Co1      1.0000 0.99987  0.00019  0.52923  Biso   1.000  Co
  Co2      1.0000 0.33347  0.66648  0.47083  Biso   1.000  Co
