data_image0
_cell_length_a       6.23188
_cell_length_b       6.23321
_cell_length_c       18.4116
_cell_angle_alpha    90
_cell_angle_beta     90
_cell_angle_gamma    119.993

_symmetry_space_group_name_H-M    "P 1"
_symmetry_int_tables_number       1

loop_
  _symmetry_equiv_pos_as_xyz
  'x, y, z'

loop_
  _atom_site_label
  _atom_site_occupancy
  _atom_site_fract_x
  _atom_site_fract_y
  _atom_site_fract_z
  _atom_site_thermal_displace_type
  _atom_site_B_iso_or_equiv
  _atom_site_type_symbol
  Co1      1.0000 0.00001  0.00002  0.50001  Biso   1.000  Co
  Co2      1.0000 0.33333  0.66666  0.49998  Biso   1.000  Co
  P1       1.0000 0.66671  0.33337  0.43868  Biso   1.000  P
  P2       1.0000 0.66663  0.33331  0.56139  Biso   1.000  P
  Se1      1.0000 0.28434  0.95099  0.42379  Biso   1.000  Se
  Se2      1.0000 0.04897  0.33327  0.42378  Biso   1.000  Se
  Se3      1.0000 0.66668  0.71567  0.42379  Biso   1.000  Se
  Se4      1.0000 0.04913  0.71580  0.57620  Biso   1.000  Se
  Se5      1.0000 0.28426  0.33343  0.57621  Biso   1.000  Se
  Se6      1.0000 0.66664  0.95088  0.57620  Biso   1.000  Se
