data_image0
_cell_length_a       6.71243
_cell_length_b       6.71358
_cell_length_c       18.4116
_cell_angle_alpha    90
_cell_angle_beta     90
_cell_angle_gamma    119.994

_symmetry_space_group_name_H-M    "P 1"
_symmetry_int_tables_number       1

loop_
  _symmetry_equiv_pos_as_xyz
  'x, y, z'

loop_
  _atom_site_label
  _atom_site_occupancy
  _atom_site_fract_x
  _atom_site_fract_y
  _atom_site_fract_z
  _atom_site_thermal_displace_type
  _atom_site_B_iso_or_equiv
  _atom_site_type_symbol
  Co1      1.0000 0.00001  0.00003  0.49998  Biso   1.000  Co
  Co2      1.0000 0.33333  0.66665  0.49999  Biso   1.000  Co
  P1       1.0000 0.66669  0.33337  0.43938  Biso   1.000  P
  P2       1.0000 0.66665  0.33331  0.56072  Biso   1.000  P
  Te1      1.0000 0.27208  0.93870  0.41806  Biso   1.000  Te
  Te2      1.0000 0.06123  0.33332  0.41807  Biso   1.000  Te
  Te3      1.0000 0.66665  0.72796  0.41806  Biso   1.000  Te
  Te4      1.0000 0.06138  0.72810  0.58192  Biso   1.000  Te
  Te5      1.0000 0.27199  0.33336  0.58192  Biso   1.000  Te
  Te6      1.0000 0.66668  0.93860  0.58193  Biso   1.000  Te
