data_image0
_cell_length_a       4.89845
_cell_length_b       3.57057
_cell_length_c       22.0177
_cell_angle_alpha    90
_cell_angle_beta     90
_cell_angle_gamma    90

_symmetry_space_group_name_H-M    "P 1"
_symmetry_int_tables_number       1

loop_
  _symmetry_equiv_pos_as_xyz
  'x, y, z'

loop_
  _atom_site_label
  _atom_site_occupancy
  _atom_site_fract_x
  _atom_site_fract_y
  _atom_site_fract_z
  _atom_site_thermal_displace_type
  _atom_site_B_iso_or_equiv
  _atom_site_type_symbol
  Co1      1.0000 0.39316  0.16637  0.56965  Biso   1.000  Co
  Co2      1.0000 0.33366  0.66612  0.43035  Biso   1.000  Co
  Se1      1.0000 0.11341  0.16436  0.48445  Biso   1.000  Se
  Se2      1.0000 0.61342  0.66443  0.51556  Biso   1.000  Se
  Se3      1.0000 0.51727  0.17232  0.37066  Biso   1.000  Se
  Se4      1.0000 0.20968  0.67244  0.62935  Biso   1.000  Se
  Se5      1.0000 0.11157  0.49400  0.33936  Biso   1.000  Se
  Se6      1.0000 0.61545  0.99436  0.66062  Biso   1.000  Se
