data_image0
_cell_length_a       5.40387
_cell_length_b       5.43188
_cell_length_c       16.2861
_cell_angle_alpha    90
_cell_angle_beta     90
_cell_angle_gamma    90

_symmetry_space_group_name_H-M    "P 1"
_symmetry_int_tables_number       1

loop_
  _symmetry_equiv_pos_as_xyz
  'x, y, z'

loop_
  _atom_site_label
  _atom_site_occupancy
  _atom_site_fract_x
  _atom_site_fract_y
  _atom_site_fract_z
  _atom_site_thermal_displace_type
  _atom_site_B_iso_or_equiv
  _atom_site_type_symbol
  Co1      1.0000 0.50000  0.00000  0.50000  Biso   1.000  Co
  Co2      1.0000 0.00000  0.50000  0.50000  Biso   1.000  Co
  S1       1.0000 0.13119  0.13370  0.47876  Biso   1.000  S
  S2       1.0000 0.63119  0.36631  0.52124  Biso   1.000  S
  S3       1.0000 0.86881  0.86630  0.52124  Biso   1.000  S
  S4       1.0000 0.36881  0.63369  0.47876  Biso   1.000  S
