data_image0
_cell_length_a       3.39818
_cell_length_b       5.76944
_cell_length_c       17.7344
_cell_angle_alpha    90
_cell_angle_beta     90
_cell_angle_gamma    90

_symmetry_space_group_name_H-M    "P 1"
_symmetry_int_tables_number       1

loop_
  _symmetry_equiv_pos_as_xyz
  'x, y, z'

loop_
  _atom_site_label
  _atom_site_occupancy
  _atom_site_fract_x
  _atom_site_fract_y
  _atom_site_fract_z
  _atom_site_thermal_displace_type
  _atom_site_B_iso_or_equiv
  _atom_site_type_symbol
  Co1      1.0000 0.00000  0.01962  0.50186  Biso   1.000  Co
  Se1      1.0000 0.50000  0.16559  0.58242  Biso   1.000  Se
  Se2      1.0000 0.00000  0.33441  0.41758  Biso   1.000  Se
  Co2      1.0000 0.50000  0.48038  0.49814  Biso   1.000  Co
  Se3      1.0000 0.00000  0.66255  0.57103  Biso   1.000  Se
  Se4      1.0000 0.50000  0.83745  0.42897  Biso   1.000  Se
