data_image0
_cell_length_a       3.46062
_cell_length_b       3.4606
_cell_length_c       18.6285
_cell_angle_alpha    90
_cell_angle_beta     90
_cell_angle_gamma    120

_symmetry_space_group_name_H-M    "P 1"
_symmetry_int_tables_number       1

loop_
  _symmetry_equiv_pos_as_xyz
  'x, y, z'

loop_
  _atom_site_label
  _atom_site_occupancy
  _atom_site_fract_x
  _atom_site_fract_y
  _atom_site_fract_z
  _atom_site_thermal_displace_type
  _atom_site_B_iso_or_equiv
  _atom_site_type_symbol
  Co1      1.0000 0.33318  0.66634  0.56121  Biso   1.000  Co
  S1       1.0000 0.66639  0.33273  0.40264  Biso   1.000  S
  S2       1.0000 0.99979  0.99964  0.59736  Biso   1.000  S
  Co2      1.0000 0.33309  0.66620  0.43879  Biso   1.000  Co
