data_image0
_cell_length_a       3.64807
_cell_length_b       3.64798
_cell_length_c       18.8012
_cell_angle_alpha    90
_cell_angle_beta     90
_cell_angle_gamma    120.001

_symmetry_space_group_name_H-M    "P 1"
_symmetry_int_tables_number       1

loop_
  _symmetry_equiv_pos_as_xyz
  'x, y, z'

loop_
  _atom_site_label
  _atom_site_occupancy
  _atom_site_fract_x
  _atom_site_fract_y
  _atom_site_fract_z
  _atom_site_thermal_displace_type
  _atom_site_B_iso_or_equiv
  _atom_site_type_symbol
  Co1      1.0000 0.33306  0.66607  0.55848  Biso   1.000  Co
  Se1      1.0000 0.66623  0.33241  0.39899  Biso   1.000  Se
  Se2      1.0000 0.99965  0.99937  0.60101  Biso   1.000  Se
  Co2      1.0000 0.33293  0.66592  0.44151  Biso   1.000  Co
