data_image0
_cell_length_a       3.74078
_cell_length_b       3.74163
_cell_length_c       18.8558
_cell_angle_alpha    90
_cell_angle_beta     90
_cell_angle_gamma    119.992

_symmetry_space_group_name_H-M    "P 1"
_symmetry_int_tables_number       1

loop_
  _symmetry_equiv_pos_as_xyz
  'x, y, z'

loop_
  _atom_site_label
  _atom_site_occupancy
  _atom_site_fract_x
  _atom_site_fract_y
  _atom_site_fract_z
  _atom_site_thermal_displace_type
  _atom_site_B_iso_or_equiv
  _atom_site_type_symbol
  Se1      1.0000 0.00000  0.00005  0.41825  Biso   1.000  Se
  Se2      1.0000 0.33333  0.66662  0.58182  Biso   1.000  Se
  Co1      1.0000 0.99998  0.00009  0.54065  Biso   1.000  Co
  Co2      1.0000 0.33335  0.66658  0.45942  Biso   1.000  Co
