data_image0
_cell_length_a       3.63564
_cell_length_b       6.25639
_cell_length_c       17.8456
_cell_angle_alpha    90
_cell_angle_beta     90
_cell_angle_gamma    90

_symmetry_space_group_name_H-M    "P 1"
_symmetry_int_tables_number       1

loop_
  _symmetry_equiv_pos_as_xyz
  'x, y, z'

loop_
  _atom_site_label
  _atom_site_occupancy
  _atom_site_fract_x
  _atom_site_fract_y
  _atom_site_fract_z
  _atom_site_thermal_displace_type
  _atom_site_B_iso_or_equiv
  _atom_site_type_symbol
  Co1      1.0000 0.00000  0.01157  0.50130  Biso   1.000  Co
  Te1      1.0000 0.50000  0.16711  0.58538  Biso   1.000  Te
  Te2      1.0000 0.00000  0.33289  0.41462  Biso   1.000  Te
  Co2      1.0000 0.50000  0.48843  0.49870  Biso   1.000  Co
  Te3      1.0000 0.00000  0.66473  0.57754  Biso   1.000  Te
  Te4      1.0000 0.50000  0.83527  0.42246  Biso   1.000  Te
