data_image0
_cell_length_a       6.08375
_cell_length_b       6.34195
_cell_length_c       16.5388
_cell_angle_alpha    90
_cell_angle_beta     90
_cell_angle_gamma    90

_symmetry_space_group_name_H-M    "P 1"
_symmetry_int_tables_number       1

loop_
  _symmetry_equiv_pos_as_xyz
  'x, y, z'

loop_
  _atom_site_label
  _atom_site_occupancy
  _atom_site_fract_x
  _atom_site_fract_y
  _atom_site_fract_z
  _atom_site_thermal_displace_type
  _atom_site_B_iso_or_equiv
  _atom_site_type_symbol
  Co1      1.0000 0.50000  1.00000  0.50000  Biso   1.000  Co
  Co2      1.0000 0.00000  0.50000  0.50000  Biso   1.000  Co
  Te1      1.0000 0.13265  0.14345  0.45567  Biso   1.000  Te
  Te2      1.0000 0.63264  0.35658  0.54437  Biso   1.000  Te
  Te3      1.0000 0.86735  0.85655  0.54433  Biso   1.000  Te
  Te4      1.0000 0.36736  0.64342  0.45563  Biso   1.000  Te
