data_image0
_cell_length_a       3.63963
_cell_length_b       3.64014
_cell_length_c       17.6282
_cell_angle_alpha    90
_cell_angle_beta     90
_cell_angle_gamma    90

_symmetry_space_group_name_H-M    "P 1"
_symmetry_int_tables_number       1

loop_
  _symmetry_equiv_pos_as_xyz
  'x, y, z'

loop_
  _atom_site_label
  _atom_site_occupancy
  _atom_site_fract_x
  _atom_site_fract_y
  _atom_site_fract_z
  _atom_site_thermal_displace_type
  _atom_site_B_iso_or_equiv
  _atom_site_type_symbol
  Co1      1.0000 0.00392  1.00000  0.49188  Biso   1.000  Co
  Te1      1.0000 0.50464  1.00000  0.39323  Biso   1.000  Te
  Co2      1.0000 0.50218  0.50000  0.49178  Biso   1.000  Co
  Te2      1.0000 0.50472  1.00000  0.59042  Biso   1.000  Te
