data_image0
_cell_length_a       3.96729
_cell_length_b       3.96729
_cell_length_c       18.838
_cell_angle_alpha    90
_cell_angle_beta     90
_cell_angle_gamma    120

_symmetry_space_group_name_H-M    "P 1"
_symmetry_int_tables_number       1

loop_
  _symmetry_equiv_pos_as_xyz
  'x, y, z'

loop_
  _atom_site_label
  _atom_site_occupancy
  _atom_site_fract_x
  _atom_site_fract_y
  _atom_site_fract_z
  _atom_site_thermal_displace_type
  _atom_site_B_iso_or_equiv
  _atom_site_type_symbol
  Co1      1.0000 0.33312  0.66633  0.55611  Biso   1.000  Co
  Te1      1.0000 0.66655  0.33296  0.39967  Biso   1.000  Te
  Te2      1.0000 0.99985  0.99985  0.60031  Biso   1.000  Te
  Co2      1.0000 0.33328  0.66649  0.44388  Biso   1.000  Co
