data_image0
_cell_length_a       6.66926
_cell_length_b       6.73495
_cell_length_c       18.4419
_cell_angle_alpha    90
_cell_angle_beta     90
_cell_angle_gamma    119.169

_symmetry_space_group_name_H-M    "P 1"
_symmetry_int_tables_number       1

loop_
  _symmetry_equiv_pos_as_xyz
  'x, y, z'

loop_
  _atom_site_label
  _atom_site_occupancy
  _atom_site_fract_x
  _atom_site_fract_y
  _atom_site_fract_z
  _atom_site_thermal_displace_type
  _atom_site_B_iso_or_equiv
  _atom_site_type_symbol
  Co1      1.0000 0.95555  0.93943  0.49744  Biso   1.000  Co
  Co2      1.0000 0.92624  0.44015  0.50256  Biso   1.000  Co
  Co3      1.0000 0.45262  0.42837  0.49929  Biso   1.000  Co
  Co4      1.0000 0.42916  0.95121  0.50071  Biso   1.000  Co
  Se1      1.0000 0.27631  0.11199  0.41959  Biso   1.000  Se
  Se2      1.0000 0.60547  0.26759  0.58041  Biso   1.000  Se
  Se3      1.0000 0.77931  0.61096  0.42259  Biso   1.000  Se
  Se4      1.0000 0.10247  0.76863  0.57741  Biso   1.000  Se
  Se5      1.0000 0.11098  0.27183  0.57015  Biso   1.000  Se
  Se6      1.0000 0.77080  0.10774  0.42985  Biso   1.000  Se
  Se7      1.0000 0.61102  0.77409  0.56702  Biso   1.000  Se
  Se8      1.0000 0.27077  0.60549  0.43298  Biso   1.000  Se
