data_image0
_cell_length_a       6.01955
_cell_length_b       6.61494
_cell_length_c       18.4419
_cell_angle_alpha    90
_cell_angle_beta     90
_cell_angle_gamma    116.608

_symmetry_space_group_name_H-M    "P 1"
_symmetry_int_tables_number       1

loop_
  _symmetry_equiv_pos_as_xyz
  'x, y, z'

loop_
  _atom_site_label
  _atom_site_occupancy
  _atom_site_fract_x
  _atom_site_fract_y
  _atom_site_fract_z
  _atom_site_thermal_displace_type
  _atom_site_B_iso_or_equiv
  _atom_site_type_symbol
  Co1      1.0000 0.97950  0.94959  0.49751  Biso   1.000  Co
  Co2      1.0000 0.90233  0.43015  0.50250  Biso   1.000  Co
  Co3      1.0000 0.47940  0.44955  0.49750  Biso   1.000  Co
  Co4      1.0000 0.40243  0.93019  0.50252  Biso   1.000  Co
  S1       1.0000 0.30259  0.13789  0.42775  Biso   1.000  S
  S2       1.0000 0.57927  0.24186  0.57227  Biso   1.000  S
  S3       1.0000 0.80244  0.63784  0.42773  Biso   1.000  S
  S4       1.0000 0.07935  0.74188  0.57228  Biso   1.000  S
  S5       1.0000 0.11906  0.27453  0.56310  Biso   1.000  S
  S6       1.0000 0.76275  0.10520  0.43691  Biso   1.000  S
  S7       1.0000 0.61916  0.77441  0.56318  Biso   1.000  S
  S8       1.0000 0.26269  0.60535  0.43684  Biso   1.000  S
