data_image0
_cell_length_a       3.90139
_cell_length_b       3.3109
_cell_length_c       21.3418
_cell_angle_alpha    90
_cell_angle_beta     90
_cell_angle_gamma    90

_symmetry_space_group_name_H-M    "P 1"
_symmetry_int_tables_number       1

loop_
  _symmetry_equiv_pos_as_xyz
  'x, y, z'

loop_
  _atom_site_label
  _atom_site_occupancy
  _atom_site_fract_x
  _atom_site_fract_y
  _atom_site_fract_z
  _atom_site_thermal_displace_type
  _atom_site_B_iso_or_equiv
  _atom_site_type_symbol
  Cr1      1.0000 0.50000  1.00000  0.46056  Biso   1.000  Cr
  Cr2      1.0000 0.00000  0.50000  0.53944  Biso   1.000  Cr
  O1       1.0000 0.50000  0.50000  0.51852  Biso   1.000  O
  O2       1.0000 0.00000  0.00000  0.48148  Biso   1.000  O
  Br1      1.0000 0.50000  0.50000  0.37360  Biso   1.000  Br
  Br2      1.0000 0.00000  0.00000  0.62640  Biso   1.000  Br
