data_image0
_cell_length_a       3.6495
_cell_length_b       7.51321
_cell_length_c       17.9642
_cell_angle_alpha    90
_cell_angle_beta     90
_cell_angle_gamma    90

_symmetry_space_group_name_H-M    "P 1"
_symmetry_int_tables_number       1

loop_
  _symmetry_equiv_pos_as_xyz
  'x, y, z'

loop_
  _atom_site_label
  _atom_site_occupancy
  _atom_site_fract_x
  _atom_site_fract_y
  _atom_site_fract_z
  _atom_site_thermal_displace_type
  _atom_site_B_iso_or_equiv
  _atom_site_type_symbol
  Cr1      1.0000 0.00000  0.00080  0.49862  Biso   1.000  Cr
  Br1      1.0000 0.50000  0.12065  0.58290  Biso   1.000  Br
  Br2      1.0000 0.00000  0.37931  0.41709  Biso   1.000  Br
  Cr2      1.0000 0.50000  0.49917  0.50139  Biso   1.000  Cr
  Br3      1.0000 1.00000  0.62147  0.58480  Biso   1.000  Br
  Br4      1.0000 0.50000  0.87857  0.41522  Biso   1.000  Br
