data_image0
_cell_length_a       3.45612
_cell_length_b       7.33141
_cell_length_c       17.7373
_cell_angle_alpha    90
_cell_angle_beta     90
_cell_angle_gamma    90

_symmetry_space_group_name_H-M    "P 1"
_symmetry_int_tables_number       1

loop_
  _symmetry_equiv_pos_as_xyz
  'x, y, z'

loop_
  _atom_site_label
  _atom_site_occupancy
  _atom_site_fract_x
  _atom_site_fract_y
  _atom_site_fract_z
  _atom_site_thermal_displace_type
  _atom_site_B_iso_or_equiv
  _atom_site_type_symbol
  Cr1      1.0000 0.00000  0.00016  0.50108  Biso   1.000  Cr
  Cl1      1.0000 0.50000  0.12109  0.57870  Biso   1.000  Cl
  Cl2      1.0000 1.00000  0.37892  0.42131  Biso   1.000  Cl
  Cr2      1.0000 0.50000  0.49984  0.49892  Biso   1.000  Cr
  Cl3      1.0000 1.00000  0.61910  0.57700  Biso   1.000  Cl
  Cl4      1.0000 0.50000  0.88091  0.42300  Biso   1.000  Cl
