data_image0
_cell_length_a       3.04373
_cell_length_b       3.04373
_cell_length_c       21.2147
_cell_angle_alpha    90
_cell_angle_beta     90
_cell_angle_gamma    120

_symmetry_space_group_name_H-M    "P 1"
_symmetry_int_tables_number       1

loop_
  _symmetry_equiv_pos_as_xyz
  'x, y, z'

loop_
  _atom_site_label
  _atom_site_occupancy
  _atom_site_fract_x
  _atom_site_fract_y
  _atom_site_fract_z
  _atom_site_thermal_displace_type
  _atom_site_B_iso_or_equiv
  _atom_site_type_symbol
  Cr1      1.0000 0.33333  0.66667  0.44950  Biso   1.000  Cr
  Cr2      1.0000 0.66667  0.33333  0.55050  Biso   1.000  Cr
  C1       1.0000 0.00000  0.00000  0.50000  Biso   1.000  C
  O1       1.0000 0.33333  0.66667  0.60754  Biso   1.000  O
  O2       1.0000 0.66667  0.33333  0.39246  Biso   1.000  O
  H1       1.0000 0.33333  0.66667  0.65342  Biso   1.000  H
  H2       1.0000 0.66667  0.33333  0.34658  Biso   1.000  H
