data_image0
_cell_length_a       3.45433
_cell_length_b       7.12095
_cell_length_c       17.7373
_cell_angle_alpha    90
_cell_angle_beta     90
_cell_angle_gamma    90

_symmetry_space_group_name_H-M    "P 1"
_symmetry_int_tables_number       1

loop_
  _symmetry_equiv_pos_as_xyz
  'x, y, z'

loop_
  _atom_site_label
  _atom_site_occupancy
  _atom_site_fract_x
  _atom_site_fract_y
  _atom_site_fract_z
  _atom_site_thermal_displace_type
  _atom_site_B_iso_or_equiv
  _atom_site_type_symbol
  Cr1      1.0000 0.00000  0.00035  0.50006  Biso   1.000  Cr
  Cl1      1.0000 0.50000  0.11816  0.57925  Biso   1.000  Cl
  Cl2      1.0000 1.00000  0.38184  0.42076  Biso   1.000  Cl
  Cr2      1.0000 0.50000  0.49965  0.49995  Biso   1.000  Cr
  Cl3      1.0000 1.00000  0.61795  0.57906  Biso   1.000  Cl
  Cl4      1.0000 0.50000  0.88206  0.42094  Biso   1.000  Cl
