data_image0
_cell_length_a       2.70637
_cell_length_b       2.70652
_cell_length_c       18.8558
_cell_angle_alpha    90
_cell_angle_beta     90
_cell_angle_gamma    119.998

_symmetry_space_group_name_H-M    "P 1"
_symmetry_int_tables_number       1

loop_
  _symmetry_equiv_pos_as_xyz
  'x, y, z'

loop_
  _atom_site_label
  _atom_site_occupancy
  _atom_site_fract_x
  _atom_site_fract_y
  _atom_site_fract_z
  _atom_site_thermal_displace_type
  _atom_site_B_iso_or_equiv
  _atom_site_type_symbol
  F1       1.0000 0.99985  0.99992  0.38312  Biso   1.000  F
  F2       1.0000 0.33348  0.66675  0.61695  Biso   1.000  F
  Cr1      1.0000 0.00009  0.00023  0.54820  Biso   1.000  Cr
  Cr2      1.0000 0.33324  0.66644  0.45187  Biso   1.000  Cr
