data_image0
_cell_length_a       6.54263
_cell_length_b       5.66504
_cell_length_c       18.3028
_cell_angle_alpha    90
_cell_angle_beta     90
_cell_angle_gamma    90

_symmetry_space_group_name_H-M    "P 1"
_symmetry_int_tables_number       1

loop_
  _symmetry_equiv_pos_as_xyz
  'x, y, z'

loop_
  _atom_site_label
  _atom_site_occupancy
  _atom_site_fract_x
  _atom_site_fract_y
  _atom_site_fract_z
  _atom_site_thermal_displace_type
  _atom_site_B_iso_or_equiv
  _atom_site_type_symbol
  Cr1      1.0000 0.00094  0.00282  0.49996  Biso   1.000  Cr
  Cr2      1.0000 0.50099  0.00284  0.50002  Biso   1.000  Cr
  Mo1      1.0000 0.25082  0.49838  0.50001  Biso   1.000  Mo
  Mo2      1.0000 0.75083  0.49842  0.50002  Biso   1.000  Mo
  Se1      1.0000 0.00081  0.32436  0.40977  Biso   1.000  Se
  Se2      1.0000 0.25094  0.84369  0.58688  Biso   1.000  Se
  Se3      1.0000 0.00085  0.32412  0.59020  Biso   1.000  Se
  Se4      1.0000 0.25105  0.84349  0.41310  Biso   1.000  Se
  Se5      1.0000 0.50083  0.32425  0.40982  Biso   1.000  Se
  Se6      1.0000 0.75106  0.84370  0.58689  Biso   1.000  Se
  Se7      1.0000 0.50085  0.32424  0.59023  Biso   1.000  Se
  Se8      1.0000 0.75094  0.84349  0.41309  Biso   1.000  Se
