data_image0
_cell_length_a       6.24824
_cell_length_b       5.40283
_cell_length_c       18.0934
_cell_angle_alpha    90
_cell_angle_beta     90
_cell_angle_gamma    90

_symmetry_space_group_name_H-M    "P 1"
_symmetry_int_tables_number       1

loop_
  _symmetry_equiv_pos_as_xyz
  'x, y, z'

loop_
  _atom_site_label
  _atom_site_occupancy
  _atom_site_fract_x
  _atom_site_fract_y
  _atom_site_fract_z
  _atom_site_thermal_displace_type
  _atom_site_B_iso_or_equiv
  _atom_site_type_symbol
  Cr1      1.0000 0.00087  0.00242  0.49999  Biso   1.000  Cr
  Cr2      1.0000 0.50082  0.00238  0.50002  Biso   1.000  Cr
  Mo1      1.0000 0.25082  0.49937  0.50002  Biso   1.000  Mo
  Mo2      1.0000 0.75083  0.49934  0.50002  Biso   1.000  Mo
  S1       1.0000 0.00082  0.32361  0.41452  Biso   1.000  S
  S2       1.0000 0.25081  0.84484  0.58239  Biso   1.000  S
  S3       1.0000 0.00082  0.32350  0.58548  Biso   1.000  S
  S4       1.0000 0.25093  0.84483  0.41764  Biso   1.000  S
  S5       1.0000 0.50083  0.32352  0.41453  Biso   1.000  S
  S6       1.0000 0.75091  0.84487  0.58237  Biso   1.000  S
  S7       1.0000 0.50083  0.32350  0.58548  Biso   1.000  S
  S8       1.0000 0.75083  0.84482  0.41766  Biso   1.000  S
