data_image0
_cell_length_a       7.02605
_cell_length_b       6.09079
_cell_length_c       18.5841
_cell_angle_alpha    90
_cell_angle_beta     90
_cell_angle_gamma    90

_symmetry_space_group_name_H-M    "P 1"
_symmetry_int_tables_number       1

loop_
  _symmetry_equiv_pos_as_xyz
  'x, y, z'

loop_
  _atom_site_label
  _atom_site_occupancy
  _atom_site_fract_x
  _atom_site_fract_y
  _atom_site_fract_z
  _atom_site_thermal_displace_type
  _atom_site_B_iso_or_equiv
  _atom_site_type_symbol
  Cr1      1.0000 0.00070  0.00490  0.49999  Biso   1.000  Cr
  Cr2      1.0000 0.50114  0.00504  0.50000  Biso   1.000  Cr
  Mo1      1.0000 0.25083  0.49647  0.50002  Biso   1.000  Mo
  Mo2      1.0000 0.75069  0.49688  0.50002  Biso   1.000  Mo
  Te1      1.0000 0.00073  0.32589  0.40363  Biso   1.000  Te
  Te2      1.0000 0.25094  0.84250  0.59238  Biso   1.000  Te
  Te3      1.0000 0.00071  0.32581  0.59639  Biso   1.000  Te
  Te4      1.0000 0.25088  0.84241  0.40760  Biso   1.000  Te
  Te5      1.0000 0.50084  0.32594  0.40357  Biso   1.000  Te
  Te6      1.0000 0.75087  0.84256  0.59251  Biso   1.000  Te
  Te7      1.0000 0.50084  0.32578  0.59643  Biso   1.000  Te
  Te8      1.0000 0.75095  0.84248  0.40748  Biso   1.000  Te
