data_image0
_cell_length_a       2.75301
_cell_length_b       4.75542
_cell_length_c       16.922
_cell_angle_alpha    90
_cell_angle_beta     90
_cell_angle_gamma    90

_symmetry_space_group_name_H-M    "P 1"
_symmetry_int_tables_number       1

loop_
  _symmetry_equiv_pos_as_xyz
  'x, y, z'

loop_
  _atom_site_label
  _atom_site_occupancy
  _atom_site_fract_x
  _atom_site_fract_y
  _atom_site_fract_z
  _atom_site_thermal_displace_type
  _atom_site_B_iso_or_equiv
  _atom_site_type_symbol
  Cr1      1.0000 0.00000  0.03124  0.50231  Biso   1.000  Cr
  O1       1.0000 0.50000  0.15954  0.57100  Biso   1.000  O
  O2       1.0000 0.00000  0.34046  0.42900  Biso   1.000  O
  Cr2      1.0000 0.50000  0.46876  0.49769  Biso   1.000  Cr
  O3       1.0000 0.00000  0.66037  0.55517  Biso   1.000  O
  O4       1.0000 0.50000  0.83963  0.44484  Biso   1.000  O
