data_image0
_cell_length_a       2.75201
_cell_length_b       4.74333
_cell_length_c       16.922
_cell_angle_alpha    90
_cell_angle_beta     90
_cell_angle_gamma    90

_symmetry_space_group_name_H-M    "P 1"
_symmetry_int_tables_number       1

loop_
  _symmetry_equiv_pos_as_xyz
  'x, y, z'

loop_
  _atom_site_label
  _atom_site_occupancy
  _atom_site_fract_x
  _atom_site_fract_y
  _atom_site_fract_z
  _atom_site_thermal_displace_type
  _atom_site_B_iso_or_equiv
  _atom_site_type_symbol
  Cr1      1.0000 0.00000  0.03149  0.50268  Biso   1.000  Cr
  O1       1.0000 0.50000  0.15989  0.57134  Biso   1.000  O
  O2       1.0000 0.00000  0.34011  0.42866  Biso   1.000  O
  Cr2      1.0000 0.50000  0.46851  0.49732  Biso   1.000  Cr
  O3       1.0000 0.00000  0.66036  0.55517  Biso   1.000  O
  O4       1.0000 0.50000  0.83964  0.44483  Biso   1.000  O
