data_image0
_cell_length_a       2.92693
_cell_length_b       5.12642
_cell_length_c       17.0409
_cell_angle_alpha    90
_cell_angle_beta     90
_cell_angle_gamma    90

_symmetry_space_group_name_H-M    "P 1"
_symmetry_int_tables_number       1

loop_
  _symmetry_equiv_pos_as_xyz
  'x, y, z'

loop_
  _atom_site_label
  _atom_site_occupancy
  _atom_site_fract_x
  _atom_site_fract_y
  _atom_site_fract_z
  _atom_site_thermal_displace_type
  _atom_site_B_iso_or_equiv
  _atom_site_type_symbol
  Cr1      1.0000 0.00000  0.03365  0.48375  Biso   1.000  Cr
  O1       1.0000 0.00000  0.30540  0.55580  Biso   1.000  O
  Cr2      1.0000 0.50000  0.47552  0.50217  Biso   1.000  Cr
  O2       1.0000 0.00000  0.68410  0.45714  Biso   1.000  O
