data_image0
_cell_length_a       6.82518
_cell_length_b       6.82928
_cell_length_c       18.4116
_cell_angle_alpha    90
_cell_angle_beta     90
_cell_angle_gamma    119.98

_symmetry_space_group_name_H-M    "P 1"
_symmetry_int_tables_number       1

loop_
  _symmetry_equiv_pos_as_xyz
  'x, y, z'

loop_
  _atom_site_label
  _atom_site_occupancy
  _atom_site_fract_x
  _atom_site_fract_y
  _atom_site_fract_z
  _atom_site_thermal_displace_type
  _atom_site_B_iso_or_equiv
  _atom_site_type_symbol
  Cr1      1.0000 0.00006  0.00013  0.49999  Biso   1.000  Cr
  Cr2      1.0000 0.33328  0.66655  0.50000  Biso   1.000  Cr
  P1       1.0000 0.66644  0.33341  0.43898  Biso   1.000  P
  P2       1.0000 0.66690  0.33327  0.56105  Biso   1.000  P
  Te1      1.0000 0.29189  0.95850  0.40910  Biso   1.000  Te
  Te2      1.0000 0.04059  0.33328  0.40915  Biso   1.000  Te
  Te3      1.0000 0.66667  0.70825  0.40909  Biso   1.000  Te
  Te4      1.0000 0.04148  0.70821  0.59091  Biso   1.000  Te
  Te5      1.0000 0.29271  0.33340  0.59085  Biso   1.000  Te
  Te6      1.0000 0.66667  0.95839  0.59091  Biso   1.000  Te
