data_image0
_cell_length_a       6.38287
_cell_length_b       6.38347
_cell_length_c       18.4116
_cell_angle_alpha    90
_cell_angle_beta     90
_cell_angle_gamma    119.997

_symmetry_space_group_name_H-M    "P 1"
_symmetry_int_tables_number       1

loop_
  _symmetry_equiv_pos_as_xyz
  'x, y, z'

loop_
  _atom_site_label
  _atom_site_occupancy
  _atom_site_fract_x
  _atom_site_fract_y
  _atom_site_fract_z
  _atom_site_thermal_displace_type
  _atom_site_B_iso_or_equiv
  _atom_site_type_symbol
  Cr1      1.0000 0.00006  0.00004  0.49376  Biso   1.000  Cr
  Cr2      1.0000 0.33333  0.66667  0.49375  Biso   1.000  Cr
  P1       1.0000 0.66668  0.33334  0.46004  Biso   1.000  P
  P2       1.0000 0.66657  0.33326  0.58295  Biso   1.000  P
  Se1      1.0000 0.33927  0.00592  0.41284  Biso   1.000  Se
  Se2      1.0000 0.99410  0.33333  0.41284  Biso   1.000  Se
  Se3      1.0000 0.66666  0.66072  0.41285  Biso   1.000  Se
  Se4      1.0000 0.05545  0.72212  0.57701  Biso   1.000  Se
  Se5      1.0000 0.27785  0.33342  0.57702  Biso   1.000  Se
  Se6      1.0000 0.66673  0.94458  0.57701  Biso   1.000  Se
