data_image0
_cell_length_a       6.82372
_cell_length_b       6.82775
_cell_length_c       18.4116
_cell_angle_alpha    90
_cell_angle_beta     90
_cell_angle_gamma    119.98

_symmetry_space_group_name_H-M    "P 1"
_symmetry_int_tables_number       1

loop_
  _symmetry_equiv_pos_as_xyz
  'x, y, z'

loop_
  _atom_site_label
  _atom_site_occupancy
  _atom_site_fract_x
  _atom_site_fract_y
  _atom_site_fract_z
  _atom_site_thermal_displace_type
  _atom_site_B_iso_or_equiv
  _atom_site_type_symbol
  Cr1      1.0000 0.00008  0.00012  0.50000  Biso   1.000  Cr
  Cr2      1.0000 0.33326  0.66656  0.50000  Biso   1.000  Cr
  P1       1.0000 0.66641  0.33339  0.43885  Biso   1.000  P
  P2       1.0000 0.66693  0.33329  0.56118  Biso   1.000  P
  Te1      1.0000 0.29338  0.95990  0.40866  Biso   1.000  Te
  Te2      1.0000 0.03938  0.33329  0.40870  Biso   1.000  Te
  Te3      1.0000 0.66676  0.70684  0.40866  Biso   1.000  Te
  Te4      1.0000 0.04000  0.70682  0.59134  Biso   1.000  Te
  Te5      1.0000 0.29392  0.33339  0.59130  Biso   1.000  Te
  Te6      1.0000 0.66658  0.95979  0.59134  Biso   1.000  Te
