data_image0
_cell_length_a       5.9563
_cell_length_b       5.96008
_cell_length_c       18.4116
_cell_angle_alpha    90
_cell_angle_beta     90
_cell_angle_gamma    119.979

_symmetry_space_group_name_H-M    "P 1"
_symmetry_int_tables_number       1

loop_
  _symmetry_equiv_pos_as_xyz
  'x, y, z'

loop_
  _atom_site_label
  _atom_site_occupancy
  _atom_site_fract_x
  _atom_site_fract_y
  _atom_site_fract_z
  _atom_site_thermal_displace_type
  _atom_site_B_iso_or_equiv
  _atom_site_type_symbol
  Cr1      1.0000 0.00000  0.00000  0.50000  Biso   1.000  Cr
  Cr2      1.0000 0.33334  0.66668  0.50000  Biso   1.000  Cr
  P1       1.0000 0.66673  0.33334  0.43977  Biso   1.000  P
  P2       1.0000 0.66661  0.33334  0.56019  Biso   1.000  P
  S1       1.0000 0.32216  0.98889  0.41797  Biso   1.000  S
  S2       1.0000 0.01133  0.33329  0.41792  Biso   1.000  S
  S3       1.0000 0.66656  0.67773  0.41796  Biso   1.000  S
  S4       1.0000 0.01110  0.67771  0.58206  Biso   1.000  S
  S5       1.0000 0.32209  0.33339  0.58210  Biso   1.000  S
  S6       1.0000 0.66678  0.98903  0.58206  Biso   1.000  S
