data_image0
_cell_length_a       5.96847
_cell_length_b       5.9714
_cell_length_c       18.4116
_cell_angle_alpha    90
_cell_angle_beta     90
_cell_angle_gamma    119.984

_symmetry_space_group_name_H-M    "P 1"
_symmetry_int_tables_number       1

loop_
  _symmetry_equiv_pos_as_xyz
  'x, y, z'

loop_
  _atom_site_label
  _atom_site_occupancy
  _atom_site_fract_x
  _atom_site_fract_y
  _atom_site_fract_z
  _atom_site_thermal_displace_type
  _atom_site_B_iso_or_equiv
  _atom_site_type_symbol
  Cr1      1.0000 0.00000  0.00008  0.50001  Biso   1.000  Cr
  Cr2      1.0000 0.33334  0.66660  0.50001  Biso   1.000  Cr
  P1       1.0000 0.66661  0.33330  0.43968  Biso   1.000  P
  P2       1.0000 0.66673  0.33338  0.56029  Biso   1.000  P
  S1       1.0000 0.32953  0.99627  0.41484  Biso   1.000  S
  S2       1.0000 0.00364  0.33324  0.41478  Biso   1.000  S
  S3       1.0000 0.66647  0.67021  0.41482  Biso   1.000  S
  S4       1.0000 0.00379  0.67037  0.58517  Biso   1.000  S
  S5       1.0000 0.32975  0.33346  0.58523  Biso   1.000  S
  S6       1.0000 0.66685  0.99649  0.58520  Biso   1.000  S
