data_image0
_cell_length_a       6.39747
_cell_length_b       6.39775
_cell_length_c       18.4116
_cell_angle_alpha    90
_cell_angle_beta     90
_cell_angle_gamma    119.999

_symmetry_space_group_name_H-M    "P 1"
_symmetry_int_tables_number       1

loop_
  _symmetry_equiv_pos_as_xyz
  'x, y, z'

loop_
  _atom_site_label
  _atom_site_occupancy
  _atom_site_fract_x
  _atom_site_fract_y
  _atom_site_fract_z
  _atom_site_thermal_displace_type
  _atom_site_B_iso_or_equiv
  _atom_site_type_symbol
  Cr1      1.0000 0.00008  0.00014  0.49437  Biso   1.000  Cr
  Cr2      1.0000 0.33324  0.66654  0.49438  Biso   1.000  Cr
  P1       1.0000 0.66676  0.33338  0.45871  Biso   1.000  P
  P2       1.0000 0.66659  0.33327  0.58151  Biso   1.000  P
  Se1      1.0000 0.33718  0.00387  0.41357  Biso   1.000  Se
  Se2      1.0000 0.99622  0.33328  0.41358  Biso   1.000  Se
  Se3      1.0000 0.66672  0.66283  0.41357  Biso   1.000  Se
  Se4      1.0000 0.05410  0.72088  0.57677  Biso   1.000  Se
  Se5      1.0000 0.27914  0.33337  0.57684  Biso   1.000  Se
  Se6      1.0000 0.66668  0.94587  0.57677  Biso   1.000  Se
