data_image0
_cell_length_a       2.99654
_cell_length_b       5.48993
_cell_length_c       17.9594
_cell_angle_alpha    90
_cell_angle_beta     90
_cell_angle_gamma    90

_symmetry_space_group_name_H-M    "P 1"
_symmetry_int_tables_number       1

loop_
  _symmetry_equiv_pos_as_xyz
  'x, y, z'

loop_
  _atom_site_label
  _atom_site_occupancy
  _atom_site_fract_x
  _atom_site_fract_y
  _atom_site_fract_z
  _atom_site_thermal_displace_type
  _atom_site_B_iso_or_equiv
  _atom_site_type_symbol
  Cr1      1.0000 0.00000  0.05231  0.50423  Biso   1.000  Cr
  S1       1.0000 0.50000  0.17352  0.59094  Biso   1.000  S
  S2       1.0000 0.00000  0.32648  0.40906  Biso   1.000  S
  Cr2      1.0000 0.50000  0.44769  0.49577  Biso   1.000  Cr
  S3       1.0000 1.00000  0.67586  0.56955  Biso   1.000  S
  S4       1.0000 0.50000  0.82414  0.43045  Biso   1.000  S
