data_image0
_cell_length_a       3.11912
_cell_length_b       5.75496
_cell_length_c       18.1557
_cell_angle_alpha    90
_cell_angle_beta     90
_cell_angle_gamma    90

_symmetry_space_group_name_H-M    "P 1"
_symmetry_int_tables_number       1

loop_
  _symmetry_equiv_pos_as_xyz
  'x, y, z'

loop_
  _atom_site_label
  _atom_site_occupancy
  _atom_site_fract_x
  _atom_site_fract_y
  _atom_site_fract_z
  _atom_site_thermal_displace_type
  _atom_site_B_iso_or_equiv
  _atom_site_type_symbol
  Cr1      1.0000 0.00000  0.05900  0.50420  Biso   1.000  Cr
  Se1      1.0000 0.50000  0.17267  0.59738  Biso   1.000  Se
  Se2      1.0000 0.00000  0.32732  0.40262  Biso   1.000  Se
  Cr2      1.0000 0.50000  0.44099  0.49580  Biso   1.000  Cr
  Se3      1.0000 0.00000  0.67825  0.57307  Biso   1.000  Se
  Se4      1.0000 0.50000  0.82175  0.42693  Biso   1.000  Se
