data_image0
_cell_length_a       3.66753
_cell_length_b       3.66785
_cell_length_c       18.8558
_cell_angle_alpha    90
_cell_angle_beta     90
_cell_angle_gamma    119.997

_symmetry_space_group_name_H-M    "P 1"
_symmetry_int_tables_number       1

loop_
  _symmetry_equiv_pos_as_xyz
  'x, y, z'

loop_
  _atom_site_label
  _atom_site_occupancy
  _atom_site_fract_x
  _atom_site_fract_y
  _atom_site_fract_z
  _atom_site_thermal_displace_type
  _atom_site_B_iso_or_equiv
  _atom_site_type_symbol
  S1       1.0000 1.00000  0.00003  0.41848  Biso   1.000  S
  S2       1.0000 0.33333  0.66664  0.58159  Biso   1.000  S
  Cr1      1.0000 0.00001  0.00001  0.53880  Biso   1.000  Cr
  Cr2      1.0000 0.33332  0.66665  0.46127  Biso   1.000  Cr
