data_image0
_cell_length_a       6.17548
_cell_length_b       3.61895
_cell_length_c       21.666
_cell_angle_alpha    90
_cell_angle_beta     90
_cell_angle_gamma    90

_symmetry_space_group_name_H-M    "P 1"
_symmetry_int_tables_number       1

loop_
  _symmetry_equiv_pos_as_xyz
  'x, y, z'

loop_
  _atom_site_label
  _atom_site_occupancy
  _atom_site_fract_x
  _atom_site_fract_y
  _atom_site_fract_z
  _atom_site_thermal_displace_type
  _atom_site_B_iso_or_equiv
  _atom_site_type_symbol
  Cr1      1.0000 0.48135  0.25000  0.58567  Biso   1.000  Cr
  Cr2      1.0000 0.28195  0.75000  0.41442  Biso   1.000  Cr
  Te1      1.0000 0.15217  0.25000  0.50170  Biso   1.000  Te
  Te2      1.0000 0.61113  0.75000  0.49839  Biso   1.000  Te
  Te3      1.0000 0.51810  0.25000  0.34697  Biso   1.000  Te
  Te4      1.0000 0.24519  0.75000  0.65313  Biso   1.000  Te
  Te5      1.0000 0.05441  0.25000  0.34376  Biso   1.000  Te
  Te6      1.0000 0.70888  0.75000  0.65634  Biso   1.000  Te
