data_image0
_cell_length_a       6.14938
_cell_length_b       3.62393
_cell_length_c       21.666
_cell_angle_alpha    90
_cell_angle_beta     90
_cell_angle_gamma    90

_symmetry_space_group_name_H-M    "P 1"
_symmetry_int_tables_number       1

loop_
  _symmetry_equiv_pos_as_xyz
  'x, y, z'

loop_
  _atom_site_label
  _atom_site_occupancy
  _atom_site_fract_x
  _atom_site_fract_y
  _atom_site_fract_z
  _atom_site_thermal_displace_type
  _atom_site_B_iso_or_equiv
  _atom_site_type_symbol
  Cr1      1.0000 0.48236  0.25000  0.58611  Biso   1.000  Cr
  Cr2      1.0000 0.28093  0.75000  0.41399  Biso   1.000  Cr
  Te1      1.0000 0.15456  0.25000  0.50115  Biso   1.000  Te
  Te2      1.0000 0.60873  0.75000  0.49894  Biso   1.000  Te
  Te3      1.0000 0.52049  0.25000  0.34716  Biso   1.000  Te
  Te4      1.0000 0.24280  0.75000  0.65293  Biso   1.000  Te
  Te5      1.0000 0.05079  0.25000  0.34474  Biso   1.000  Te
  Te6      1.0000 0.71250  0.75000  0.65535  Biso   1.000  Te
