data_image0
_cell_length_a       3.90016
_cell_length_b       3.90283
_cell_length_c       17.7576
_cell_angle_alpha    90
_cell_angle_beta     90
_cell_angle_gamma    90

_symmetry_space_group_name_H-M    "P 1"
_symmetry_int_tables_number       1

loop_
  _symmetry_equiv_pos_as_xyz
  'x, y, z'

loop_
  _atom_site_label
  _atom_site_occupancy
  _atom_site_fract_x
  _atom_site_fract_y
  _atom_site_fract_z
  _atom_site_thermal_displace_type
  _atom_site_B_iso_or_equiv
  _atom_site_type_symbol
  Cr1      1.0000 0.00000  0.03652  0.42931  Biso   1.000  Cr
  Te1      1.0000 1.00000  0.53658  0.53517  Biso   1.000  Te
  Cr2      1.0000 0.50000  0.53697  0.42931  Biso   1.000  Cr
  Te2      1.0000 0.00000  0.53659  0.32345  Biso   1.000  Te
