data_image0
_cell_length_a       6.26407
_cell_length_b       5.41016
_cell_length_c       18.0958
_cell_angle_alpha    90
_cell_angle_beta     90
_cell_angle_gamma    90

_symmetry_space_group_name_H-M    "P 1"
_symmetry_int_tables_number       1

loop_
  _symmetry_equiv_pos_as_xyz
  'x, y, z'

loop_
  _atom_site_label
  _atom_site_occupancy
  _atom_site_fract_x
  _atom_site_fract_y
  _atom_site_fract_z
  _atom_site_thermal_displace_type
  _atom_site_B_iso_or_equiv
  _atom_site_type_symbol
  Cr1      1.0000 0.00085  0.00115  0.49998  Biso   1.000  Cr
  Cr2      1.0000 0.50084  0.00115  0.50001  Biso   1.000  Cr
  W1       1.0000 0.25083  0.50075  0.49999  Biso   1.000  W
  W2       1.0000 0.75081  0.50075  0.50000  Biso   1.000  W
  S1       1.0000 0.00083  0.32393  0.41446  Biso   1.000  S
  S2       1.0000 0.25080  0.84436  0.58268  Biso   1.000  S
  S3       1.0000 0.00082  0.32387  0.58551  Biso   1.000  S
  S4       1.0000 0.25083  0.84433  0.41731  Biso   1.000  S
  S5       1.0000 0.50083  0.32388  0.41448  Biso   1.000  S
  S6       1.0000 0.75090  0.84434  0.58268  Biso   1.000  S
  S7       1.0000 0.50082  0.32392  0.58554  Biso   1.000  S
  S8       1.0000 0.75085  0.84434  0.41732  Biso   1.000  S
