data_image0
_cell_length_a       6.55325
_cell_length_b       5.67289
_cell_length_c       18.3058
_cell_angle_alpha    90
_cell_angle_beta     90
_cell_angle_gamma    90

_symmetry_space_group_name_H-M    "P 1"
_symmetry_int_tables_number       1

loop_
  _symmetry_equiv_pos_as_xyz
  'x, y, z'

loop_
  _atom_site_label
  _atom_site_occupancy
  _atom_site_fract_x
  _atom_site_fract_y
  _atom_site_fract_z
  _atom_site_thermal_displace_type
  _atom_site_B_iso_or_equiv
  _atom_site_type_symbol
  Cr1      1.0000 0.00091  0.00205  0.49995  Biso   1.000  Cr
  Cr2      1.0000 0.50089  0.00202  0.49994  Biso   1.000  Cr
  W1       1.0000 0.25079  0.49966  0.50002  Biso   1.000  W
  W2       1.0000 0.75080  0.49968  0.50002  Biso   1.000  W
  Se1      1.0000 0.00079  0.32450  0.40971  Biso   1.000  Se
  Se2      1.0000 0.25090  0.84367  0.58713  Biso   1.000  Se
  Se3      1.0000 0.00078  0.32438  0.59029  Biso   1.000  Se
  Se4      1.0000 0.25088  0.84349  0.41280  Biso   1.000  Se
  Se5      1.0000 0.50080  0.32449  0.40971  Biso   1.000  Se
  Se6      1.0000 0.75089  0.84371  0.58713  Biso   1.000  Se
  Se7      1.0000 0.50078  0.32435  0.59028  Biso   1.000  Se
  Se8      1.0000 0.75091  0.84352  0.41280  Biso   1.000  Se
