data_image0
_cell_length_a       6.17289
_cell_length_b       5.34177
_cell_length_c       18.0211
_cell_angle_alpha    90
_cell_angle_beta     90
_cell_angle_gamma    90

_symmetry_space_group_name_H-M    "P 1"
_symmetry_int_tables_number       1

loop_
  _symmetry_equiv_pos_as_xyz
  'x, y, z'

loop_
  _atom_site_label
  _atom_site_occupancy
  _atom_site_fract_x
  _atom_site_fract_y
  _atom_site_fract_z
  _atom_site_thermal_displace_type
  _atom_site_B_iso_or_equiv
  _atom_site_type_symbol
  Cr1      1.0000 0.00151  0.00179  0.49998  Biso   1.000  Cr
  Cr2      1.0000 0.50021  0.00181  0.50004  Biso   1.000  Cr
  Cr3      1.0000 0.25081  0.49799  0.50000  Biso   1.000  Cr
  Mo1      1.0000 0.75081  0.50190  0.49999  Biso   1.000  Mo
  S1       1.0000 0.00975  0.32875  0.41618  Biso   1.000  S
  S2       1.0000 0.25080  0.83140  0.58063  Biso   1.000  S
  S3       1.0000 0.00973  0.32867  0.58377  Biso   1.000  S
  S4       1.0000 0.25088  0.83140  0.41936  Biso   1.000  S
  S5       1.0000 0.49187  0.32866  0.41621  Biso   1.000  S
  S6       1.0000 0.75095  0.84773  0.58377  Biso   1.000  S
  S7       1.0000 0.49190  0.32879  0.58382  Biso   1.000  S
  S8       1.0000 0.75085  0.84778  0.41623  Biso   1.000  S
