data_image0
_cell_length_a       6.48451
_cell_length_b       5.61338
_cell_length_c       18.2316
_cell_angle_alpha    90
_cell_angle_beta     90
_cell_angle_gamma    90

_symmetry_space_group_name_H-M    "P 1"
_symmetry_int_tables_number       1

loop_
  _symmetry_equiv_pos_as_xyz
  'x, y, z'

loop_
  _atom_site_label
  _atom_site_occupancy
  _atom_site_fract_x
  _atom_site_fract_y
  _atom_site_fract_z
  _atom_site_thermal_displace_type
  _atom_site_B_iso_or_equiv
  _atom_site_type_symbol
  Cr1      1.0000 0.99972  0.00222  0.49999  Biso   1.000  Cr
  Cr2      1.0000 0.50194  0.00216  0.49998  Biso   1.000  Cr
  Cr3      1.0000 0.25081  0.49659  0.50000  Biso   1.000  Cr
  Mo1      1.0000 0.75083  0.50280  0.50001  Biso   1.000  Mo
  Se1      1.0000 0.00874  0.32919  0.41161  Biso   1.000  Se
  Se2      1.0000 0.25088  0.83148  0.58482  Biso   1.000  Se
  Se3      1.0000 0.00870  0.32921  0.58843  Biso   1.000  Se
  Se4      1.0000 0.25082  0.83145  0.41513  Biso   1.000  Se
  Se5      1.0000 0.49291  0.32920  0.41161  Biso   1.000  Se
  Se6      1.0000 0.75081  0.84695  0.58863  Biso   1.000  Se
  Se7      1.0000 0.49290  0.32913  0.58841  Biso   1.000  Se
  Se8      1.0000 0.75086  0.84690  0.41137  Biso   1.000  Se
