data_image0
_cell_length_a       6.04972
_cell_length_b       6.98612
_cell_length_c       18.5314
_cell_angle_alpha    90
_cell_angle_beta     90
_cell_angle_gamma    90

_symmetry_space_group_name_H-M    "P 1"
_symmetry_int_tables_number       1

loop_
  _symmetry_equiv_pos_as_xyz
  'x, y, z'

loop_
  _atom_site_label
  _atom_site_occupancy
  _atom_site_fract_x
  _atom_site_fract_y
  _atom_site_fract_z
  _atom_site_thermal_displace_type
  _atom_site_B_iso_or_equiv
  _atom_site_type_symbol
  Cr1      1.0000 0.99706  0.00469  0.49994  Biso   1.000  Cr
  Cr2      1.0000 0.99709  0.49358  0.50006  Biso   1.000  Cr
  Cr3      1.0000 0.50775  0.74912  0.49998  Biso   1.000  Cr
  Mo1      1.0000 0.49448  0.24916  0.49996  Biso   1.000  Mo
  Te1      1.0000 0.67019  0.99315  0.59423  Biso   1.000  Te
  Te2      1.0000 0.16857  0.74905  0.41046  Biso   1.000  Te
  Te3      1.0000 0.67011  0.99315  0.40564  Biso   1.000  Te
  Te4      1.0000 0.16864  0.74923  0.58951  Biso   1.000  Te
  Te5      1.0000 0.67009  0.50511  0.59431  Biso   1.000  Te
  Te6      1.0000 0.15440  0.24927  0.40471  Biso   1.000  Te
  Te7      1.0000 0.67032  0.50516  0.40570  Biso   1.000  Te
  Te8      1.0000 0.15452  0.24904  0.59529  Biso   1.000  Te
