data_image0
_cell_length_a       6.99517
_cell_length_b       6.05605
_cell_length_c       18.5279
_cell_angle_alpha    90
_cell_angle_beta     90
_cell_angle_gamma    90

_symmetry_space_group_name_H-M    "P 1"
_symmetry_int_tables_number       1

loop_
  _symmetry_equiv_pos_as_xyz
  'x, y, z'

loop_
  _atom_site_label
  _atom_site_occupancy
  _atom_site_fract_x
  _atom_site_fract_y
  _atom_site_fract_z
  _atom_site_thermal_displace_type
  _atom_site_B_iso_or_equiv
  _atom_site_type_symbol
  Cr1      1.0000 0.99604  0.00280  0.50004  Biso   1.000  Cr
  Cr2      1.0000 0.50568  0.00282  0.49995  Biso   1.000  Cr
  Cr3      1.0000 0.25088  0.49321  0.50002  Biso   1.000  Cr
  W1       1.0000 0.75079  0.50472  0.50003  Biso   1.000  W
  Te1      1.0000 0.00742  0.32975  0.40569  Biso   1.000  Te
  Te2      1.0000 0.25092  0.83143  0.58961  Biso   1.000  Te
  Te3      1.0000 0.00740  0.32983  0.59440  Biso   1.000  Te
  Te4      1.0000 0.25079  0.83138  0.41040  Biso   1.000  Te
  Te5      1.0000 0.49427  0.32983  0.40561  Biso   1.000  Te
  Te6      1.0000 0.75075  0.84569  0.59521  Biso   1.000  Te
  Te7      1.0000 0.49423  0.32964  0.59437  Biso   1.000  Te
  Te8      1.0000 0.75092  0.84562  0.40479  Biso   1.000  Te
