data_image0
_cell_length_a       3.01316
_cell_length_b       3.01316
_cell_length_c       26.0734
_cell_angle_alpha    90
_cell_angle_beta     90
_cell_angle_gamma    120

_symmetry_space_group_name_H-M    "P 1"
_symmetry_int_tables_number       1

loop_
  _symmetry_equiv_pos_as_xyz
  'x, y, z'

loop_
  _atom_site_label
  _atom_site_occupancy
  _atom_site_fract_x
  _atom_site_fract_y
  _atom_site_fract_z
  _atom_site_thermal_displace_type
  _atom_site_B_iso_or_equiv
  _atom_site_type_symbol
  Cr1      1.0000 0.33333  0.66667  0.45452  Biso   1.000  Cr
  Cr2      1.0000 0.66667  0.33333  0.54552  Biso   1.000  Cr
  Cr3      1.0000 0.00000  0.00000  0.37295  Biso   1.000  Cr
  Cr4      1.0000 0.00000  0.00000  0.62708  Biso   1.000  Cr
  C1       1.0000 0.00000  0.00000  0.50002  Biso   1.000  C
  C2       1.0000 0.66667  0.33333  0.41148  Biso   1.000  C
  C3       1.0000 0.33333  0.66667  0.58856  Biso   1.000  C
  O1       1.0000 0.66667  0.33333  0.67462  Biso   1.000  O
  O2       1.0000 0.33333  0.66667  0.32540  Biso   1.000  O
  H1       1.0000 0.66667  0.33333  0.71186  Biso   1.000  H
  H2       1.0000 0.33333  0.66667  0.28816  Biso   1.000  H
