data_image0
_cell_length_a       3.02551
_cell_length_b       3.02551
_cell_length_c       25.5908
_cell_angle_alpha    90
_cell_angle_beta     90
_cell_angle_gamma    120

_symmetry_space_group_name_H-M    "P 1"
_symmetry_int_tables_number       1

loop_
  _symmetry_equiv_pos_as_xyz
  'x, y, z'

loop_
  _atom_site_label
  _atom_site_occupancy
  _atom_site_fract_x
  _atom_site_fract_y
  _atom_site_fract_z
  _atom_site_thermal_displace_type
  _atom_site_B_iso_or_equiv
  _atom_site_type_symbol
  Cr1      1.0000 0.33333  0.66667  0.45352  Biso   1.000  Cr
  Cr2      1.0000 0.66667  0.33333  0.54673  Biso   1.000  Cr
  Cr3      1.0000 0.00000  0.00000  0.36948  Biso   1.000  Cr
  Cr4      1.0000 0.00000  0.00000  0.63078  Biso   1.000  Cr
  N1       1.0000 0.00000  0.00000  0.50013  Biso   1.000  N
  N2       1.0000 0.66667  0.33333  0.40626  Biso   1.000  N
  N3       1.0000 0.33333  0.66667  0.59398  Biso   1.000  N
  O1       1.0000 0.66667  0.33333  0.67763  Biso   1.000  O
  O2       1.0000 0.33333  0.66667  0.32262  Biso   1.000  O
  H1       1.0000 0.66667  0.33333  0.71566  Biso   1.000  H
  H2       1.0000 0.33333  0.66667  0.28460  Biso   1.000  H
