data_image0
_cell_length_a       2.9471
_cell_length_b       2.9471
_cell_length_c       24.1098
_cell_angle_alpha    90
_cell_angle_beta     90
_cell_angle_gamma    120

_symmetry_space_group_name_H-M    "P 1"
_symmetry_int_tables_number       1

loop_
  _symmetry_equiv_pos_as_xyz
  'x, y, z'

loop_
  _atom_site_label
  _atom_site_occupancy
  _atom_site_fract_x
  _atom_site_fract_y
  _atom_site_fract_z
  _atom_site_thermal_displace_type
  _atom_site_B_iso_or_equiv
  _atom_site_type_symbol
  Cr1      1.0000 0.33333  0.66667  0.44956  Biso   1.000  Cr
  Cr2      1.0000 0.66667  0.33333  0.55028  Biso   1.000  Cr
  Cr3      1.0000 0.00000  0.00000  0.34588  Biso   1.000  Cr
  Cr4      1.0000 0.00000  0.00000  0.65396  Biso   1.000  Cr
  N1       1.0000 0.00000  0.00000  0.49992  Biso   1.000  N
  N2       1.0000 0.66667  0.33333  0.40138  Biso   1.000  N
  N3       1.0000 0.33333  0.66667  0.59846  Biso   1.000  N
  O1       1.0000 0.66667  0.33333  0.69042  Biso   1.000  O
  O2       1.0000 0.33333  0.66667  0.30943  Biso   1.000  O
