data_image0
_cell_length_a       6.31066
_cell_length_b       5.46124
_cell_length_c       18.1577
_cell_angle_alpha    90
_cell_angle_beta     90
_cell_angle_gamma    90

_symmetry_space_group_name_H-M    "P 1"
_symmetry_int_tables_number       1

loop_
  _symmetry_equiv_pos_as_xyz
  'x, y, z'

loop_
  _atom_site_label
  _atom_site_occupancy
  _atom_site_fract_x
  _atom_site_fract_y
  _atom_site_fract_z
  _atom_site_thermal_displace_type
  _atom_site_B_iso_or_equiv
  _atom_site_type_symbol
  Cr1      1.0000 0.00084  0.00042  0.49995  Biso   1.000  Cr
  Mo1      1.0000 0.50085  0.00237  0.50000  Biso   1.000  Mo
  Mo2      1.0000 0.24984  0.50022  0.49996  Biso   1.000  Mo
  Mo3      1.0000 0.75179  0.50022  0.49996  Biso   1.000  Mo
  S1       1.0000 0.00083  0.32174  0.41572  Biso   1.000  S
  S2       1.0000 0.24216  0.83926  0.58406  Biso   1.000  S
  S3       1.0000 0.00079  0.32171  0.58415  Biso   1.000  S
  S4       1.0000 0.24223  0.83935  0.41587  Biso   1.000  S
  S5       1.0000 0.50081  0.33605  0.41305  Biso   1.000  S
  S6       1.0000 0.75958  0.83928  0.58407  Biso   1.000  S
  S7       1.0000 0.50083  0.33625  0.58695  Biso   1.000  S
  S8       1.0000 0.75947  0.83930  0.41589  Biso   1.000  S
