data_image0
_cell_length_a       6.59352
_cell_length_b       5.70721
_cell_length_c       18.3796
_cell_angle_alpha    90
_cell_angle_beta     90
_cell_angle_gamma    90

_symmetry_space_group_name_H-M    "P 1"
_symmetry_int_tables_number       1

loop_
  _symmetry_equiv_pos_as_xyz
  'x, y, z'

loop_
  _atom_site_label
  _atom_site_occupancy
  _atom_site_fract_x
  _atom_site_fract_y
  _atom_site_fract_z
  _atom_site_thermal_displace_type
  _atom_site_B_iso_or_equiv
  _atom_site_type_symbol
  Cr1      1.0000 0.00076  0.99983  0.49996  Biso   1.000  Cr
  Mo1      1.0000 0.50079  0.00375  0.50001  Biso   1.000  Mo
  Mo2      1.0000 0.25112  0.49981  0.49998  Biso   1.000  Mo
  Mo3      1.0000 0.75027  0.49981  0.49998  Biso   1.000  Mo
  Se1      1.0000 0.00066  0.32246  0.41132  Biso   1.000  Se
  Se2      1.0000 0.24289  0.83885  0.58865  Biso   1.000  Se
  Se3      1.0000 0.00060  0.32243  0.58859  Biso   1.000  Se
  Se4      1.0000 0.24292  0.83883  0.41132  Biso   1.000  Se
  Se5      1.0000 0.50070  0.33624  0.40806  Biso   1.000  Se
  Se6      1.0000 0.75864  0.83882  0.58866  Biso   1.000  Se
  Se7      1.0000 0.50070  0.33634  0.59194  Biso   1.000  Se
  Se8      1.0000 0.75861  0.83883  0.41133  Biso   1.000  Se
