data_image0
_cell_length_a       6.3215
_cell_length_b       5.47007
_cell_length_c       18.1642
_cell_angle_alpha    90
_cell_angle_beta     90
_cell_angle_gamma    90

_symmetry_space_group_name_H-M    "P 1"
_symmetry_int_tables_number       1

loop_
  _symmetry_equiv_pos_as_xyz
  'x, y, z'

loop_
  _atom_site_label
  _atom_site_occupancy
  _atom_site_fract_x
  _atom_site_fract_y
  _atom_site_fract_z
  _atom_site_thermal_displace_type
  _atom_site_B_iso_or_equiv
  _atom_site_type_symbol
  Cr1      1.0000 0.00084  0.00113  0.49995  Biso   1.000  Cr
  W1       1.0000 0.50085  0.00025  0.50003  Biso   1.000  W
  W2       1.0000 0.24981  0.50096  0.49995  Biso   1.000  W
  W3       1.0000 0.75180  0.50096  0.49996  Biso   1.000  W
  S1       1.0000 0.00080  0.32320  0.41545  Biso   1.000  S
  S2       1.0000 0.24228  0.83913  0.58445  Biso   1.000  S
  S3       1.0000 0.00079  0.32311  0.58441  Biso   1.000  S
  S4       1.0000 0.24244  0.83927  0.41551  Biso   1.000  S
  S5       1.0000 0.50081  0.33491  0.41290  Biso   1.000  S
  S6       1.0000 0.75947  0.83914  0.58445  Biso   1.000  S
  S7       1.0000 0.50080  0.33517  0.58710  Biso   1.000  S
  S8       1.0000 0.75930  0.83922  0.41553  Biso   1.000  S
