data_image0
_cell_length_a       6.59998
_cell_length_b       5.71217
_cell_length_c       18.3908
_cell_angle_alpha    90
_cell_angle_beta     90
_cell_angle_gamma    90

_symmetry_space_group_name_H-M    "P 1"
_symmetry_int_tables_number       1

loop_
  _symmetry_equiv_pos_as_xyz
  'x, y, z'

loop_
  _atom_site_label
  _atom_site_occupancy
  _atom_site_fract_x
  _atom_site_fract_y
  _atom_site_fract_z
  _atom_site_thermal_displace_type
  _atom_site_B_iso_or_equiv
  _atom_site_type_symbol
  Cr1      1.0000 0.00081  0.00036  0.49997  Biso   1.000  Cr
  W1       1.0000 0.50085  0.00201  0.50001  Biso   1.000  W
  W2       1.0000 0.25143  0.50041  0.49999  Biso   1.000  W
  W3       1.0000 0.75006  0.50043  0.49999  Biso   1.000  W
  Se1      1.0000 0.00072  0.32347  0.41115  Biso   1.000  Se
  Se2      1.0000 0.24290  0.83888  0.58902  Biso   1.000  Se
  Se3      1.0000 0.00069  0.32342  0.58878  Biso   1.000  Se
  Se4      1.0000 0.24295  0.83885  0.41096  Biso   1.000  Se
  Se5      1.0000 0.50076  0.33529  0.40781  Biso   1.000  Se
  Se6      1.0000 0.75880  0.83885  0.58903  Biso   1.000  Se
  Se7      1.0000 0.50076  0.33536  0.59219  Biso   1.000  Se
  Se8      1.0000 0.75873  0.83885  0.41096  Biso   1.000  Se
