data_image0
_cell_length_a       3.8462
_cell_length_b       6.29253
_cell_length_c       17.9145
_cell_angle_alpha    90
_cell_angle_beta     90
_cell_angle_gamma    90

_symmetry_space_group_name_H-M    "P 1"
_symmetry_int_tables_number       1

loop_
  _symmetry_equiv_pos_as_xyz
  'x, y, z'

loop_
  _atom_site_label
  _atom_site_occupancy
  _atom_site_fract_x
  _atom_site_fract_y
  _atom_site_fract_z
  _atom_site_thermal_displace_type
  _atom_site_B_iso_or_equiv
  _atom_site_type_symbol
  Cu1      1.0000 0.00000  0.99971  0.49997  Biso   1.000  Cu
  Br1      1.0000 0.50000  0.18654  0.58154  Biso   1.000  Br
  Br2      1.0000 0.00000  0.31348  0.41847  Biso   1.000  Br
  Cu2      1.0000 0.50000  0.50028  0.50004  Biso   1.000  Cu
  Br3      1.0000 1.00000  0.68596  0.58153  Biso   1.000  Br
  Br4      1.0000 0.50000  0.81400  0.41847  Biso   1.000  Br
