data_image0
_cell_length_a       4.10602
_cell_length_b       6.63794
_cell_length_c       18.2101
_cell_angle_alpha    90
_cell_angle_beta     90
_cell_angle_gamma    90

_symmetry_space_group_name_H-M    "P 1"
_symmetry_int_tables_number       1

loop_
  _symmetry_equiv_pos_as_xyz
  'x, y, z'

loop_
  _atom_site_label
  _atom_site_occupancy
  _atom_site_fract_x
  _atom_site_fract_y
  _atom_site_fract_z
  _atom_site_thermal_displace_type
  _atom_site_B_iso_or_equiv
  _atom_site_type_symbol
  Cu1      1.0000 0.00000  0.99983  0.49985  Biso   1.000  Cu
  I1       1.0000 0.50000  0.18337  0.58855  Biso   1.000  I
  I2       1.0000 0.00000  0.31663  0.41145  Biso   1.000  I
  Cu2      1.0000 0.50000  0.50019  0.50014  Biso   1.000  Cu
  I3       1.0000 0.00000  0.68333  0.58853  Biso   1.000  I
  I4       1.0000 0.50000  0.81665  0.41149  Biso   1.000  I
