data_image0
_cell_length_a       6.22118
_cell_length_b       6.22374
_cell_length_c       18.4116
_cell_angle_alpha    90
_cell_angle_beta     90
_cell_angle_gamma    119.986

_symmetry_space_group_name_H-M    "P 1"
_symmetry_int_tables_number       1

loop_
  _symmetry_equiv_pos_as_xyz
  'x, y, z'

loop_
  _atom_site_label
  _atom_site_occupancy
  _atom_site_fract_x
  _atom_site_fract_y
  _atom_site_fract_z
  _atom_site_thermal_displace_type
  _atom_site_B_iso_or_equiv
  _atom_site_type_symbol
  Cu1      1.0000 0.00005  0.00011  0.50006  Biso   1.000  Cu
  Cu2      1.0000 0.33330  0.66658  0.49996  Biso   1.000  Cu
  P1       1.0000 0.66658  0.33332  0.43911  Biso   1.000  P
  P2       1.0000 0.66676  0.33336  0.56090  Biso   1.000  P
  Se1      1.0000 0.32056  0.98752  0.41041  Biso   1.000  Se
  Se2      1.0000 0.01234  0.33308  0.41033  Biso   1.000  Se
  Se3      1.0000 0.66652  0.67913  0.41039  Biso   1.000  Se
  Se4      1.0000 0.01285  0.67911  0.58959  Biso   1.000  Se
  Se5      1.0000 0.32105  0.33371  0.58967  Biso   1.000  Se
  Se6      1.0000 0.66671  0.98749  0.58961  Biso   1.000  Se
