data_image0
_cell_length_a       5.85094
_cell_length_b       6.04478
_cell_length_c       16.4239
_cell_angle_alpha    90
_cell_angle_beta     90
_cell_angle_gamma    90

_symmetry_space_group_name_H-M    "P 1"
_symmetry_int_tables_number       1

loop_
  _symmetry_equiv_pos_as_xyz
  'x, y, z'

loop_
  _atom_site_label
  _atom_site_occupancy
  _atom_site_fract_x
  _atom_site_fract_y
  _atom_site_fract_z
  _atom_site_thermal_displace_type
  _atom_site_B_iso_or_equiv
  _atom_site_type_symbol
  Cu1      1.0000 0.50000  0.00000  0.50000  Biso   1.000  Cu
  Cu2      1.0000 1.00000  0.50000  0.50000  Biso   1.000  Cu
  Se1      1.0000 0.12277  0.12592  0.46465  Biso   1.000  Se
  Se2      1.0000 0.62277  0.37408  0.53535  Biso   1.000  Se
  Se3      1.0000 0.87723  0.87408  0.53535  Biso   1.000  Se
  Se4      1.0000 0.37723  0.62592  0.46465  Biso   1.000  Se
