data_image0
_cell_length_a       3.80278
_cell_length_b       3.80455
_cell_length_c       18.8558
_cell_angle_alpha    90
_cell_angle_beta     90
_cell_angle_gamma    119.985

_symmetry_space_group_name_H-M    "P 1"
_symmetry_int_tables_number       1

loop_
  _symmetry_equiv_pos_as_xyz
  'x, y, z'

loop_
  _atom_site_label
  _atom_site_occupancy
  _atom_site_fract_x
  _atom_site_fract_y
  _atom_site_fract_z
  _atom_site_thermal_displace_type
  _atom_site_B_iso_or_equiv
  _atom_site_type_symbol
  S1       1.0000 0.00004  0.00010  0.42284  Biso   1.000  S
  S2       1.0000 0.33329  0.66657  0.57721  Biso   1.000  S
  Cu1      1.0000 0.99996  0.00020  0.54868  Biso   1.000  Cu
  Cu2      1.0000 0.33337  0.66647  0.45141  Biso   1.000  Cu
