data_image0
_cell_length_a       3.76294
_cell_length_b       3.76388
_cell_length_c       18.8558
_cell_angle_alpha    90
_cell_angle_beta     90
_cell_angle_gamma    119.992

_symmetry_space_group_name_H-M    "P 1"
_symmetry_int_tables_number       1

loop_
  _symmetry_equiv_pos_as_xyz
  'x, y, z'

loop_
  _atom_site_label
  _atom_site_occupancy
  _atom_site_fract_x
  _atom_site_fract_y
  _atom_site_fract_z
  _atom_site_thermal_displace_type
  _atom_site_B_iso_or_equiv
  _atom_site_type_symbol
  Se1      1.0000 0.00001  0.00005  0.40561  Biso   1.000  Se
  Se2      1.0000 0.33332  0.66662  0.59448  Biso   1.000  Se
  Cu1      1.0000 0.99997  0.00010  0.53843  Biso   1.000  Cu
  Cu2      1.0000 0.33336  0.66657  0.46162  Biso   1.000  Cu
