data_image0
_cell_length_a       4.27647
_cell_length_b       4.27854
_cell_length_c       18.3241
_cell_angle_alpha    90
_cell_angle_beta     90
_cell_angle_gamma    119.984

_symmetry_space_group_name_H-M    "P 1"
_symmetry_int_tables_number       1

loop_
  _symmetry_equiv_pos_as_xyz
  'x, y, z'

loop_
  _atom_site_label
  _atom_site_occupancy
  _atom_site_fract_x
  _atom_site_fract_y
  _atom_site_fract_z
  _atom_site_thermal_displace_type
  _atom_site_B_iso_or_equiv
  _atom_site_type_symbol
  Cu1      1.0000 0.33340  0.66692  0.56893  Biso   1.000  Cu
  Te1      1.0000 0.66762  0.33498  0.40966  Biso   1.000  Te
  Te2      1.0000 0.99998  0.00022  0.59033  Biso   1.000  Te
  Cu2      1.0000 0.33434  0.66856  0.43104  Biso   1.000  Cu
