data_image0
_cell_length_a       3.27567
_cell_length_b       3.27913
_cell_length_c       18.8558
_cell_angle_alpha    90
_cell_angle_beta     90
_cell_angle_gamma    119.965

_symmetry_space_group_name_H-M    "P 1"
_symmetry_int_tables_number       1

loop_
  _symmetry_equiv_pos_as_xyz
  'x, y, z'

loop_
  _atom_site_label
  _atom_site_occupancy
  _atom_site_fract_x
  _atom_site_fract_y
  _atom_site_fract_z
  _atom_site_thermal_displace_type
  _atom_site_B_iso_or_equiv
  _atom_site_type_symbol
  F1       1.0000 0.17963  0.35989  0.30513  Biso   1.000  F
  F2       1.0000 0.15392  0.30675  0.69494  Biso   1.000  F
  Sb1      1.0000 0.14262  0.28449  0.59309  Biso   1.000  Sb
  Sb2      1.0000 0.19074  0.38201  0.40698  Biso   1.000  Sb
