data_image0
_cell_length_a       3.37783
_cell_length_b       3.37773
_cell_length_c       18.8558
_cell_angle_alpha    90
_cell_angle_beta     90
_cell_angle_gamma    120.001

_symmetry_space_group_name_H-M    "P 1"
_symmetry_int_tables_number       1

loop_
  _symmetry_equiv_pos_as_xyz
  'x, y, z'

loop_
  _atom_site_label
  _atom_site_occupancy
  _atom_site_fract_x
  _atom_site_fract_y
  _atom_site_fract_z
  _atom_site_thermal_displace_type
  _atom_site_B_iso_or_equiv
  _atom_site_type_symbol
  Br1      1.0000 0.00004  0.00014  0.36892  Biso   1.000  Br
  Br2      1.0000 0.33329  0.66653  0.63115  Biso   1.000  Br
  Fe1      1.0000 0.99993  0.99993  0.54620  Biso   1.000  Fe
  Fe2      1.0000 0.33340  0.66674  0.45387  Biso   1.000  Fe
