data_image0
_cell_length_a       5.90913
_cell_length_b       5.90913
_cell_length_c       17.5626
_cell_angle_alpha    90
_cell_angle_beta     90
_cell_angle_gamma    120

_symmetry_space_group_name_H-M    "P 1"
_symmetry_int_tables_number       1

loop_
  _symmetry_equiv_pos_as_xyz
  'x, y, z'

loop_
  _atom_site_label
  _atom_site_occupancy
  _atom_site_fract_x
  _atom_site_fract_y
  _atom_site_fract_z
  _atom_site_thermal_displace_type
  _atom_site_B_iso_or_equiv
  _atom_site_type_symbol
  Fe1      1.0000 0.66667  0.33333  0.50000  Biso   1.000  Fe
  Fe2      1.0000 0.33333  0.66667  0.50000  Biso   1.000  Fe
  Cl1      1.0000 0.63113  0.00008  0.42675  Biso   1.000  Cl
  Cl2      1.0000 0.36895  0.36887  0.42675  Biso   1.000  Cl
  Cl3      1.0000 0.99992  0.63105  0.42675  Biso   1.000  Cl
  Cl4      1.0000 0.36895  0.00008  0.57325  Biso   1.000  Cl
  Cl5      1.0000 0.63113  0.63105  0.57325  Biso   1.000  Cl
  Cl6      1.0000 0.99992  0.36887  0.57325  Biso   1.000  Cl
