data_image0
_cell_length_a       6.79333
_cell_length_b       6.79333
_cell_length_c       17.9798
_cell_angle_alpha    90
_cell_angle_beta     90
_cell_angle_gamma    120

_symmetry_space_group_name_H-M    "P 1"
_symmetry_int_tables_number       1

loop_
  _symmetry_equiv_pos_as_xyz
  'x, y, z'

loop_
  _atom_site_label
  _atom_site_occupancy
  _atom_site_fract_x
  _atom_site_fract_y
  _atom_site_fract_z
  _atom_site_thermal_displace_type
  _atom_site_B_iso_or_equiv
  _atom_site_type_symbol
  Fe1      1.0000 0.66667  0.33333  0.50000  Biso   1.000  Fe
  Fe2      1.0000 0.33333  0.66667  0.50000  Biso   1.000  Fe
  I1       1.0000 0.63471  0.00001  0.41662  Biso   1.000  I
  I2       1.0000 0.36529  0.36529  0.41662  Biso   1.000  I
  I3       1.0000 0.99999  0.63471  0.41662  Biso   1.000  I
  I4       1.0000 0.36530  0.00002  0.58338  Biso   1.000  I
  I5       1.0000 0.63472  0.63470  0.58338  Biso   1.000  I
  I6       1.0000 0.99998  0.36528  0.58338  Biso   1.000  I
