data_image0
_cell_length_a       7.2842
_cell_length_b       7.2842
_cell_length_c       18.2783
_cell_angle_alpha    90
_cell_angle_beta     90
_cell_angle_gamma    120

_symmetry_space_group_name_H-M    "P 1"
_symmetry_int_tables_number       1

loop_
  _symmetry_equiv_pos_as_xyz
  'x, y, z'

loop_
  _atom_site_label
  _atom_site_occupancy
  _atom_site_fract_x
  _atom_site_fract_y
  _atom_site_fract_z
  _atom_site_thermal_displace_type
  _atom_site_B_iso_or_equiv
  _atom_site_type_symbol
  Fe1      1.0000 0.66667  0.33333  0.50004  Biso   1.000  Fe
  Fe2      1.0000 0.33333  0.66667  0.49994  Biso   1.000  Fe
  I1       1.0000 0.42790  0.00005  0.40237  Biso   1.000  I
  I2       1.0000 0.57216  0.57210  0.40237  Biso   1.000  I
  I3       1.0000 0.99995  0.42784  0.40237  Biso   1.000  I
  I4       1.0000 0.42790  0.00015  0.59764  Biso   1.000  I
  I5       1.0000 0.57225  0.57210  0.59764  Biso   1.000  I
  I6       1.0000 0.99985  0.42775  0.59764  Biso   1.000  I
