data_image0
_cell_length_a       3.97158
_cell_length_b       3.9727
_cell_length_c       18.8558
_cell_angle_alpha    90
_cell_angle_beta     90
_cell_angle_gamma    119.991

_symmetry_space_group_name_H-M    "P 1"
_symmetry_int_tables_number       1

loop_
  _symmetry_equiv_pos_as_xyz
  'x, y, z'

loop_
  _atom_site_label
  _atom_site_occupancy
  _atom_site_fract_x
  _atom_site_fract_y
  _atom_site_fract_z
  _atom_site_thermal_displace_type
  _atom_site_B_iso_or_equiv
  _atom_site_type_symbol
  I1       1.0000 0.00000  0.00014  0.38859  Biso   1.000  I
  I2       1.0000 0.33333  0.66653  0.61148  Biso   1.000  I
  Fe1      1.0000 0.99998  0.00001  0.52853  Biso   1.000  Fe
  Fe2      1.0000 0.33335  0.66666  0.47154  Biso   1.000  Fe
