data_image0
_cell_length_a       2.71889
_cell_length_b       4.75608
_cell_length_c       16.9712
_cell_angle_alpha    90
_cell_angle_beta     90
_cell_angle_gamma    90

_symmetry_space_group_name_H-M    "P 1"
_symmetry_int_tables_number       1

loop_
  _symmetry_equiv_pos_as_xyz
  'x, y, z'

loop_
  _atom_site_label
  _atom_site_occupancy
  _atom_site_fract_x
  _atom_site_fract_y
  _atom_site_fract_z
  _atom_site_thermal_displace_type
  _atom_site_B_iso_or_equiv
  _atom_site_type_symbol
  Fe1      1.0000 0.00000  0.00018  0.50010  Biso   1.000  Fe
  O1       1.0000 0.00000  0.32445  0.55956  Biso   1.000  O
  Fe2      1.0000 0.50000  0.49929  0.49988  Biso   1.000  Fe
  O2       1.0000 0.00000  0.67622  0.44058  Biso   1.000  O
