data_image0
_cell_length_a       6.1647
_cell_length_b       6.16659
_cell_length_c       18.4116
_cell_angle_alpha    90
_cell_angle_beta     90
_cell_angle_gamma    119.99

_symmetry_space_group_name_H-M    "P 1"
_symmetry_int_tables_number       1

loop_
  _symmetry_equiv_pos_as_xyz
  'x, y, z'

loop_
  _atom_site_label
  _atom_site_occupancy
  _atom_site_fract_x
  _atom_site_fract_y
  _atom_site_fract_z
  _atom_site_thermal_displace_type
  _atom_site_B_iso_or_equiv
  _atom_site_type_symbol
  Fe1      1.0000 0.99999  0.99998  0.50001  Biso   1.000  Fe
  Fe2      1.0000 0.33335  0.66670  0.49999  Biso   1.000  Fe
  P1       1.0000 0.66670  0.33336  0.44106  Biso   1.000  P
  P2       1.0000 0.66664  0.33332  0.55897  Biso   1.000  P
  Se1      1.0000 0.29303  0.95964  0.42209  Biso   1.000  Se
  Se2      1.0000 0.04031  0.33333  0.42206  Biso   1.000  Se
  Se3      1.0000 0.66660  0.70695  0.42209  Biso   1.000  Se
  Se4      1.0000 0.04036  0.70709  0.57790  Biso   1.000  Se
  Se5      1.0000 0.29297  0.33335  0.57794  Biso   1.000  Se
  Se6      1.0000 0.66674  0.95968  0.57791  Biso   1.000  Se
