data_image0
_cell_length_a       6.678
_cell_length_b       6.67907
_cell_length_c       18.4116
_cell_angle_alpha    90
_cell_angle_beta     90
_cell_angle_gamma    119.995

_symmetry_space_group_name_H-M    "P 1"
_symmetry_int_tables_number       1

loop_
  _symmetry_equiv_pos_as_xyz
  'x, y, z'

loop_
  _atom_site_label
  _atom_site_occupancy
  _atom_site_fract_x
  _atom_site_fract_y
  _atom_site_fract_z
  _atom_site_thermal_displace_type
  _atom_site_B_iso_or_equiv
  _atom_site_type_symbol
  Fe1      1.0000 0.00000  0.00001  0.50001  Biso   1.000  Fe
  Fe2      1.0000 0.33334  0.66667  0.49997  Biso   1.000  Fe
  P1       1.0000 0.66669  0.33336  0.44101  Biso   1.000  P
  P2       1.0000 0.66665  0.33332  0.55905  Biso   1.000  P
  Te1      1.0000 0.28394  0.95061  0.41832  Biso   1.000  Te
  Te2      1.0000 0.04939  0.33329  0.41830  Biso   1.000  Te
  Te3      1.0000 0.66665  0.71605  0.41831  Biso   1.000  Te
  Te4      1.0000 0.04946  0.71614  0.58167  Biso   1.000  Te
  Te5      1.0000 0.28388  0.33337  0.58169  Biso   1.000  Te
  Te6      1.0000 0.66671  0.95057  0.58168  Biso   1.000  Te
