data_image0
_cell_length_a       5.76738
_cell_length_b       5.76859
_cell_length_c       18.4116
_cell_angle_alpha    90
_cell_angle_beta     90
_cell_angle_gamma    119.993

_symmetry_space_group_name_H-M    "P 1"
_symmetry_int_tables_number       1

loop_
  _symmetry_equiv_pos_as_xyz
  'x, y, z'

loop_
  _atom_site_label
  _atom_site_occupancy
  _atom_site_fract_x
  _atom_site_fract_y
  _atom_site_fract_z
  _atom_site_thermal_displace_type
  _atom_site_B_iso_or_equiv
  _atom_site_type_symbol
  Fe1      1.0000 1.00000  0.00000  0.49996  Biso   1.000  Fe
  Fe2      1.0000 0.33334  0.66668  0.50000  Biso   1.000  Fe
  P1       1.0000 0.66672  0.33335  0.44164  Biso   1.000  P
  P2       1.0000 0.66662  0.33333  0.55822  Biso   1.000  P
  S1       1.0000 0.30240  0.96905  0.42433  Biso   1.000  S
  S2       1.0000 0.03098  0.33329  0.42430  Biso   1.000  S
  S3       1.0000 0.66666  0.69759  0.42432  Biso   1.000  S
  S4       1.0000 0.03059  0.69728  0.57574  Biso   1.000  S
  S5       1.0000 0.30272  0.33340  0.57577  Biso   1.000  S
  S6       1.0000 0.66667  0.96944  0.57575  Biso   1.000  S
