data_image0
_cell_length_a       3.64919
_cell_length_b       3.6492
_cell_length_c       18.7597
_cell_angle_alpha    90
_cell_angle_beta     90
_cell_angle_gamma    120

_symmetry_space_group_name_H-M    "P 1"
_symmetry_int_tables_number       1

loop_
  _symmetry_equiv_pos_as_xyz
  'x, y, z'

loop_
  _atom_site_label
  _atom_site_occupancy
  _atom_site_fract_x
  _atom_site_fract_y
  _atom_site_fract_z
  _atom_site_thermal_displace_type
  _atom_site_B_iso_or_equiv
  _atom_site_type_symbol
  Fe1      1.0000 0.33324  0.66650  0.55438  Biso   1.000  Fe
  Se1      1.0000 0.66668  0.33321  0.39979  Biso   1.000  Se
  Se2      1.0000 0.99991  0.99996  0.60021  Biso   1.000  Se
  Fe2      1.0000 0.33323  0.66645  0.44559  Biso   1.000  Fe
