data_image0
_cell_length_a       3.67595
_cell_length_b       3.6773
_cell_length_c       18.8558
_cell_angle_alpha    90
_cell_angle_beta     90
_cell_angle_gamma    119.988

_symmetry_space_group_name_H-M    "P 1"
_symmetry_int_tables_number       1

loop_
  _symmetry_equiv_pos_as_xyz
  'x, y, z'

loop_
  _atom_site_label
  _atom_site_occupancy
  _atom_site_fract_x
  _atom_site_fract_y
  _atom_site_fract_z
  _atom_site_thermal_displace_type
  _atom_site_B_iso_or_equiv
  _atom_site_type_symbol
  Se1      1.0000 0.00041  0.00050  0.40789  Biso   1.000  Se
  Se2      1.0000 0.33294  0.66620  0.59991  Biso   1.000  Se
  Fe1      1.0000 0.99993  0.99996  0.53899  Biso   1.000  Fe
  Fe2      1.0000 0.33333  0.66675  0.46885  Biso   1.000  Fe
