data_image0
_cell_length_a       6.12101
_cell_length_b       6.12092
_cell_length_c       16.4239
_cell_angle_alpha    90
_cell_angle_beta     90
_cell_angle_gamma    90

_symmetry_space_group_name_H-M    "P 1"
_symmetry_int_tables_number       1

loop_
  _symmetry_equiv_pos_as_xyz
  'x, y, z'

loop_
  _atom_site_label
  _atom_site_occupancy
  _atom_site_fract_x
  _atom_site_fract_y
  _atom_site_fract_z
  _atom_site_thermal_displace_type
  _atom_site_B_iso_or_equiv
  _atom_site_type_symbol
  Fe1      1.0000 0.50000  1.00000  0.50000  Biso   1.000  Fe
  Fe2      1.0000 0.00000  0.50000  0.50000  Biso   1.000  Fe
  Se1      1.0000 0.14487  0.14486  0.50015  Biso   1.000  Se
  Se2      1.0000 0.64486  0.35513  0.49985  Biso   1.000  Se
  Se3      1.0000 0.85513  0.85514  0.49985  Biso   1.000  Se
  Se4      1.0000 0.35514  0.64487  0.50015  Biso   1.000  Se
