data_image0
_cell_length_a       3.39279
_cell_length_b       5.56702
_cell_length_c       17.8621
_cell_angle_alpha    90
_cell_angle_beta     90
_cell_angle_gamma    90

_symmetry_space_group_name_H-M    "P 1"
_symmetry_int_tables_number       1

loop_
  _symmetry_equiv_pos_as_xyz
  'x, y, z'

loop_
  _atom_site_label
  _atom_site_occupancy
  _atom_site_fract_x
  _atom_site_fract_y
  _atom_site_fract_z
  _atom_site_thermal_displace_type
  _atom_site_B_iso_or_equiv
  _atom_site_type_symbol
  Fe1      1.0000 0.00000  0.05184  0.50154  Biso   1.000  Fe
  Se1      1.0000 0.50000  0.16057  0.58899  Biso   1.000  Se
  Se2      1.0000 0.00000  0.33943  0.41101  Biso   1.000  Se
  Fe2      1.0000 0.50000  0.44817  0.49846  Biso   1.000  Fe
  Se3      1.0000 0.00000  0.66180  0.56716  Biso   1.000  Se
  Se4      1.0000 0.50000  0.83820  0.43284  Biso   1.000  Se
