data_image0
_cell_length_a       3.22748
_cell_length_b       5.32424
_cell_length_c       17.6787
_cell_angle_alpha    90
_cell_angle_beta     90
_cell_angle_gamma    90

_symmetry_space_group_name_H-M    "P 1"
_symmetry_int_tables_number       1

loop_
  _symmetry_equiv_pos_as_xyz
  'x, y, z'

loop_
  _atom_site_label
  _atom_site_occupancy
  _atom_site_fract_x
  _atom_site_fract_y
  _atom_site_fract_z
  _atom_site_thermal_displace_type
  _atom_site_B_iso_or_equiv
  _atom_site_type_symbol
  Fe1      1.0000 0.00000  0.04844  0.50096  Biso   1.000  Fe
  S1       1.0000 0.50000  0.16099  0.58346  Biso   1.000  S
  S2       1.0000 0.00000  0.33901  0.41654  Biso   1.000  S
  Fe2      1.0000 0.50000  0.45157  0.49904  Biso   1.000  Fe
  S3       1.0000 1.00000  0.66309  0.56343  Biso   1.000  S
  S4       1.0000 0.50000  0.83691  0.43657  Biso   1.000  S
