data_image0
_cell_length_a       3.65043
_cell_length_b       3.6505
_cell_length_c       18.7597
_cell_angle_alpha    90
_cell_angle_beta     90
_cell_angle_gamma    119.999

_symmetry_space_group_name_H-M    "P 1"
_symmetry_int_tables_number       1

loop_
  _symmetry_equiv_pos_as_xyz
  'x, y, z'

loop_
  _atom_site_label
  _atom_site_occupancy
  _atom_site_fract_x
  _atom_site_fract_y
  _atom_site_fract_z
  _atom_site_thermal_displace_type
  _atom_site_B_iso_or_equiv
  _atom_site_type_symbol
  Fe1      1.0000 0.33325  0.66655  0.55411  Biso   1.000  Fe
  Se1      1.0000 0.66664  0.33315  0.39959  Biso   1.000  Se
  Se2      1.0000 0.99989  0.99991  0.60039  Biso   1.000  Se
  Fe2      1.0000 0.33329  0.66652  0.44587  Biso   1.000  Fe
