data_image0
_cell_length_a       3.82323
_cell_length_b       3.82442
_cell_length_c       18.8558
_cell_angle_alpha    90
_cell_angle_beta     90
_cell_angle_gamma    119.99

_symmetry_space_group_name_H-M    "P 1"
_symmetry_int_tables_number       1

loop_
  _symmetry_equiv_pos_as_xyz
  'x, y, z'

loop_
  _atom_site_label
  _atom_site_occupancy
  _atom_site_fract_x
  _atom_site_fract_y
  _atom_site_fract_z
  _atom_site_thermal_displace_type
  _atom_site_B_iso_or_equiv
  _atom_site_type_symbol
  Te1      1.0000 0.00002  0.00008  0.39418  Biso   1.000  Te
  Te2      1.0000 0.33331  0.66659  0.60587  Biso   1.000  Te
  Fe1      1.0000 0.00001  0.00005  0.53335  Biso   1.000  Fe
  Fe2      1.0000 0.33332  0.66662  0.46671  Biso   1.000  Fe
