data_image0
_cell_length_a       6.1455
_cell_length_b       3.48843
_cell_length_c       21.3518
_cell_angle_alpha    90
_cell_angle_beta     90
_cell_angle_gamma    90

_symmetry_space_group_name_H-M    "P 1"
_symmetry_int_tables_number       1

loop_
  _symmetry_equiv_pos_as_xyz
  'x, y, z'

loop_
  _atom_site_label
  _atom_site_occupancy
  _atom_site_fract_x
  _atom_site_fract_y
  _atom_site_fract_z
  _atom_site_thermal_displace_type
  _atom_site_B_iso_or_equiv
  _atom_site_type_symbol
  Fe1      1.0000 0.48165  0.25000  0.58230  Biso   1.000  Fe
  Fe2      1.0000 0.28160  0.75000  0.41770  Biso   1.000  Fe
  Te1      1.0000 0.15930  0.25000  0.50188  Biso   1.000  Te
  Te2      1.0000 0.60394  0.75000  0.49813  Biso   1.000  Te
  Te3      1.0000 0.51564  0.25000  0.35158  Biso   1.000  Te
  Te4      1.0000 0.24760  0.75000  0.64842  Biso   1.000  Te
  Te5      1.0000 0.05145  0.25000  0.35320  Biso   1.000  Te
  Te6      1.0000 0.71179  0.75000  0.64681  Biso   1.000  Te
