data_image0
_cell_length_a       3.97785
_cell_length_b       3.97785
_cell_length_c       18.7719
_cell_angle_alpha    90
_cell_angle_beta     90
_cell_angle_gamma    120

_symmetry_space_group_name_H-M    "P 1"
_symmetry_int_tables_number       1

loop_
  _symmetry_equiv_pos_as_xyz
  'x, y, z'

loop_
  _atom_site_label
  _atom_site_occupancy
  _atom_site_fract_x
  _atom_site_fract_y
  _atom_site_fract_z
  _atom_site_thermal_displace_type
  _atom_site_B_iso_or_equiv
  _atom_site_type_symbol
  Fe1      1.0000 0.33334  0.66671  0.55304  Biso   1.000  Fe
  Te1      1.0000 0.66671  0.33333  0.39953  Biso   1.000  Te
  Te2      1.0000 0.99997  0.00003  0.60047  Biso   1.000  Te
  Fe2      1.0000 0.33338  0.66673  0.44695  Biso   1.000  Fe
