data_image0
_cell_length_a       3.64857
_cell_length_b       5.93761
_cell_length_c       18.0593
_cell_angle_alpha    90
_cell_angle_beta     90
_cell_angle_gamma    90

_symmetry_space_group_name_H-M    "P 1"
_symmetry_int_tables_number       1

loop_
  _symmetry_equiv_pos_as_xyz
  'x, y, z'

loop_
  _atom_site_label
  _atom_site_occupancy
  _atom_site_fract_x
  _atom_site_fract_y
  _atom_site_fract_z
  _atom_site_thermal_displace_type
  _atom_site_B_iso_or_equiv
  _atom_site_type_symbol
  Fe1      1.0000 0.00000  0.05618  0.50260  Biso   1.000  Fe
  Te1      1.0000 0.50000  0.15970  0.59641  Biso   1.000  Te
  Te2      1.0000 0.00000  0.34032  0.40359  Biso   1.000  Te
  Fe2      1.0000 0.50000  0.44383  0.49740  Biso   1.000  Fe
  Te3      1.0000 0.00000  0.65869  0.57059  Biso   1.000  Te
  Te4      1.0000 0.50000  0.84133  0.42941  Biso   1.000  Te
