data_image0
_cell_length_a       3.97808
_cell_length_b       3.97787
_cell_length_c       18.8558
_cell_angle_alpha    90
_cell_angle_beta     90
_cell_angle_gamma    120.002

_symmetry_space_group_name_H-M    "P 1"
_symmetry_int_tables_number       1

loop_
  _symmetry_equiv_pos_as_xyz
  'x, y, z'

loop_
  _atom_site_label
  _atom_site_occupancy
  _atom_site_fract_x
  _atom_site_fract_y
  _atom_site_fract_z
  _atom_site_thermal_displace_type
  _atom_site_B_iso_or_equiv
  _atom_site_type_symbol
  Te1      1.0000 0.99999  0.99992  0.40122  Biso   1.000  Te
  Te2      1.0000 0.33334  0.66675  0.59882  Biso   1.000  Te
  Fe1      1.0000 0.99996  0.00004  0.53725  Biso   1.000  Fe
  Fe2      1.0000 0.33337  0.66662  0.46283  Biso   1.000  Fe
