data_image0
_cell_length_a       7.33641
_cell_length_b       7.33641
_cell_length_c       18.6358
_cell_angle_alpha    90
_cell_angle_beta     90
_cell_angle_gamma    120

_symmetry_space_group_name_H-M    "P 1"
_symmetry_int_tables_number       1

loop_
  _symmetry_equiv_pos_as_xyz
  'x, y, z'

loop_
  _atom_site_label
  _atom_site_occupancy
  _atom_site_fract_x
  _atom_site_fract_y
  _atom_site_fract_z
  _atom_site_thermal_displace_type
  _atom_site_B_iso_or_equiv
  _atom_site_type_symbol
  Ga1      1.0000 0.66667  0.33333  0.50001  Biso   1.000  Ga
  Ga2      1.0000 0.33333  0.66667  0.49999  Biso   1.000  Ga
  I1       1.0000 0.40063  0.00001  0.40274  Biso   1.000  I
  I2       1.0000 0.59938  0.59937  0.40274  Biso   1.000  I
  I3       1.0000 0.99999  0.40062  0.40274  Biso   1.000  I
  I4       1.0000 0.40062  1.00000  0.59726  Biso   1.000  I
  I5       1.0000 0.59937  0.59938  0.59726  Biso   1.000  I
  I6       1.0000 0.00000  0.40063  0.59726  Biso   1.000  I
