data_image0
_cell_length_a       7.05384
_cell_length_b       7.05356
_cell_length_c       18.4116
_cell_angle_alpha    90
_cell_angle_beta     90
_cell_angle_gamma    120.001

_symmetry_space_group_name_H-M    "P 1"
_symmetry_int_tables_number       1

loop_
  _symmetry_equiv_pos_as_xyz
  'x, y, z'

loop_
  _atom_site_label
  _atom_site_occupancy
  _atom_site_fract_x
  _atom_site_fract_y
  _atom_site_fract_z
  _atom_site_thermal_displace_type
  _atom_site_B_iso_or_equiv
  _atom_site_type_symbol
  Ga1      1.0000 0.00020  0.00033  0.50542  Biso   1.000  Ga
  Ga2      1.0000 0.33340  0.66646  0.49630  Biso   1.000  Ga
  P1       1.0000 0.66667  0.33341  0.43571  Biso   1.000  P
  P2       1.0000 0.66668  0.33350  0.55950  Biso   1.000  P
  Te1      1.0000 0.29571  0.02524  0.39825  Biso   1.000  Te
  Te2      1.0000 0.97448  0.27015  0.39817  Biso   1.000  Te
  Te3      1.0000 0.72993  0.70432  0.39811  Biso   1.000  Te
  Te4      1.0000 0.98008  0.68719  0.60273  Biso   1.000  Te
  Te5      1.0000 0.31266  0.29299  0.60273  Biso   1.000  Te
  Te6      1.0000 0.70690  0.01981  0.60260  Biso   1.000  Te
