data_image0
_cell_length_a       6.61088
_cell_length_b       6.61201
_cell_length_c       18.4116
_cell_angle_alpha    90
_cell_angle_beta     90
_cell_angle_gamma    119.994

_symmetry_space_group_name_H-M    "P 1"
_symmetry_int_tables_number       1

loop_
  _symmetry_equiv_pos_as_xyz
  'x, y, z'

loop_
  _atom_site_label
  _atom_site_occupancy
  _atom_site_fract_x
  _atom_site_fract_y
  _atom_site_fract_z
  _atom_site_thermal_displace_type
  _atom_site_B_iso_or_equiv
  _atom_site_type_symbol
  Ga1      1.0000 0.00003  0.00000  0.50019  Biso   1.000  Ga
  Ga2      1.0000 0.33332  0.66669  0.49984  Biso   1.000  Ga
  P1       1.0000 0.66669  0.33334  0.43934  Biso   1.000  P
  P2       1.0000 0.66665  0.33334  0.56064  Biso   1.000  P
  Se1      1.0000 0.34229  0.01075  0.40757  Biso   1.000  Se
  Se2      1.0000 0.98928  0.33150  0.40758  Biso   1.000  Se
  Se3      1.0000 0.66847  0.65768  0.40758  Biso   1.000  Se
  Se4      1.0000 0.98974  0.65721  0.59244  Biso   1.000  Se
  Se5      1.0000 0.34278  0.33259  0.59243  Biso   1.000  Se
  Se6      1.0000 0.66746  0.01030  0.59243  Biso   1.000  Se
