data_image0
_cell_length_a       3.65591
_cell_length_b       3.65593
_cell_length_c       20.8073
_cell_angle_alpha    90
_cell_angle_beta     90
_cell_angle_gamma    120

_symmetry_space_group_name_H-M    "P 1"
_symmetry_int_tables_number       1

loop_
  _symmetry_equiv_pos_as_xyz
  'x, y, z'

loop_
  _atom_site_label
  _atom_site_occupancy
  _atom_site_fract_x
  _atom_site_fract_y
  _atom_site_fract_z
  _atom_site_thermal_displace_type
  _atom_site_B_iso_or_equiv
  _atom_site_type_symbol
  Ga1      1.0000 0.33334  0.66665  0.55944  Biso   1.000  Ga
  S1       1.0000 0.66669  0.33331  0.38824  Biso   1.000  S
  S2       1.0000 0.99998  0.00002  0.61176  Biso   1.000  S
  Ga2      1.0000 0.33332  0.66668  0.44056  Biso   1.000  Ga
