data_image0
_cell_length_a       4.80643
_cell_length_b       4.80824
_cell_length_c       18.8558
_cell_angle_alpha    90
_cell_angle_beta     90
_cell_angle_gamma    119.988

_symmetry_space_group_name_H-M    "P 1"
_symmetry_int_tables_number       1

loop_
  _symmetry_equiv_pos_as_xyz
  'x, y, z'

loop_
  _atom_site_label
  _atom_site_occupancy
  _atom_site_fract_x
  _atom_site_fract_y
  _atom_site_fract_z
  _atom_site_thermal_displace_type
  _atom_site_B_iso_or_equiv
  _atom_site_type_symbol
  Te1      1.0000 0.00001  0.00007  0.40901  Biso   1.000  Te
  Te2      1.0000 0.33332  0.66660  0.59106  Biso   1.000  Te
  Ga1      1.0000 0.99999  0.00016  0.55666  Biso   1.000  Ga
  Ga2      1.0000 0.33335  0.66651  0.44341  Biso   1.000  Ga
