data_image0
_cell_length_a       6.37188
_cell_length_b       6.37346
_cell_length_c       18.4116
_cell_angle_alpha    90
_cell_angle_beta     90
_cell_angle_gamma    119.992

_symmetry_space_group_name_H-M    "P 1"
_symmetry_int_tables_number       1

loop_
  _symmetry_equiv_pos_as_xyz
  'x, y, z'

loop_
  _atom_site_label
  _atom_site_occupancy
  _atom_site_fract_x
  _atom_site_fract_y
  _atom_site_fract_z
  _atom_site_thermal_displace_type
  _atom_site_B_iso_or_equiv
  _atom_site_type_symbol
  Ge1      1.0000 0.00005  0.00001  0.50020  Biso   1.000  Ge
  Ge2      1.0000 0.33330  0.66668  0.49984  Biso   1.000  Ge
  P1       1.0000 0.66668  0.33334  0.43959  Biso   1.000  P
  P2       1.0000 0.66666  0.33334  0.56040  Biso   1.000  P
  S1       1.0000 0.35690  0.02381  0.40861  Biso   1.000  S
  S2       1.0000 0.97635  0.33311  0.40868  Biso   1.000  S
  S3       1.0000 0.66687  0.64306  0.40863  Biso   1.000  S
  S4       1.0000 0.97648  0.64280  0.59140  Biso   1.000  S
  S5       1.0000 0.35706  0.33368  0.59133  Biso   1.000  S
  S6       1.0000 0.66636  0.02357  0.59138  Biso   1.000  S
