data_image0
_cell_length_a       4.27364
_cell_length_b       3.97349
_cell_length_c       17.1098
_cell_angle_alpha    90
_cell_angle_beta     90
_cell_angle_gamma    90

_symmetry_space_group_name_H-M    "P 1"
_symmetry_int_tables_number       1

loop_
  _symmetry_equiv_pos_as_xyz
  'x, y, z'

loop_
  _atom_site_label
  _atom_site_occupancy
  _atom_site_fract_x
  _atom_site_fract_y
  _atom_site_fract_z
  _atom_site_thermal_displace_type
  _atom_site_B_iso_or_equiv
  _atom_site_type_symbol
  Se1      1.0000 0.05395  0.99992  0.42386  Biso   1.000  Se
  Se2      1.0000 0.55406  0.49990  0.57613  Biso   1.000  Se
  Ge1      1.0000 0.13969  0.99992  0.57072  Biso   1.000  Ge
  Ge2      1.0000 0.63980  0.49990  0.42925  Biso   1.000  Ge
