data_image0
_cell_length_a       4.37571
_cell_length_b       4.22979
_cell_length_c       17.1098
_cell_angle_alpha    90
_cell_angle_beta     90
_cell_angle_gamma    90

_symmetry_space_group_name_H-M    "P 1"
_symmetry_int_tables_number       1

loop_
  _symmetry_equiv_pos_as_xyz
  'x, y, z'

loop_
  _atom_site_label
  _atom_site_occupancy
  _atom_site_fract_x
  _atom_site_fract_y
  _atom_site_fract_z
  _atom_site_thermal_displace_type
  _atom_site_B_iso_or_equiv
  _atom_site_type_symbol
  Te1      1.0000 0.06649  0.99992  0.41126  Biso   1.000  Te
  Te2      1.0000 0.56650  0.49991  0.58873  Biso   1.000  Te
  Ge1      1.0000 0.12802  0.99992  0.57019  Biso   1.000  Ge
  Ge2      1.0000 0.62803  0.49991  0.42980  Biso   1.000  Ge
