data_image0
_cell_length_a       8.28634
_cell_length_b       8.28634
_cell_length_c       15
_cell_angle_alpha    90
_cell_angle_beta     90
_cell_angle_gamma    60.0248

_symmetry_space_group_name_H-M    "P 1"
_symmetry_int_tables_number       1

loop_
  _symmetry_equiv_pos_as_xyz
  'x, y, z'

loop_
  _atom_site_label
  _atom_site_occupancy
  _atom_site_fract_x
  _atom_site_fract_y
  _atom_site_fract_z
  _atom_site_thermal_displace_type
  _atom_site_B_iso_or_equiv
  _atom_site_type_symbol
  Ge1      1.0000 0.00539  0.00539  0.50000  Biso   1.000  Ge
  P1       1.0000 0.16669  0.16669  0.50000  Biso   1.000  P
  Ge2      1.0000 0.48912  0.00540  0.50000  Biso   1.000  Ge
  Ge3      1.0000 0.00540  0.48912  0.50000  Biso   1.000  Ge
  Ge4      1.0000 0.66127  0.17755  0.50000  Biso   1.000  Ge
  Ge5      1.0000 0.17755  0.66127  0.50000  Biso   1.000  Ge
  P2       1.0000 0.49998  0.49998  0.50000  Biso   1.000  P
  Ge6      1.0000 0.66127  0.66127  0.50000  Biso   1.000  Ge
