data_image0
_cell_length_a       3.40992
_cell_length_b       3.41366
_cell_length_c       18.8558
_cell_angle_alpha    90
_cell_angle_beta     90
_cell_angle_gamma    119.964

_symmetry_space_group_name_H-M    "P 1"
_symmetry_int_tables_number       1

loop_
  _symmetry_equiv_pos_as_xyz
  'x, y, z'

loop_
  _atom_site_label
  _atom_site_occupancy
  _atom_site_fract_x
  _atom_site_fract_y
  _atom_site_fract_z
  _atom_site_thermal_displace_type
  _atom_site_B_iso_or_equiv
  _atom_site_type_symbol
  Br1      1.0000 0.00001  0.00034  0.33245  Biso   1.000  Br
  Br2      1.0000 0.33333  0.66633  0.66762  Biso   1.000  Br
  Hf1      1.0000 0.00021  0.00032  0.56349  Biso   1.000  Hf
  Hf2      1.0000 0.33312  0.66635  0.43658  Biso   1.000  Hf
