data_image0
_cell_length_a       3.43738
_cell_length_b       6.42997
_cell_length_c       18.8635
_cell_angle_alpha    90
_cell_angle_beta     90
_cell_angle_gamma    90

_symmetry_space_group_name_H-M    "P 1"
_symmetry_int_tables_number       1

loop_
  _symmetry_equiv_pos_as_xyz
  'x, y, z'

loop_
  _atom_site_label
  _atom_site_occupancy
  _atom_site_fract_x
  _atom_site_fract_y
  _atom_site_fract_z
  _atom_site_thermal_displace_type
  _atom_site_B_iso_or_equiv
  _atom_site_type_symbol
  Hf1      1.0000 0.00000  0.05791  0.50283  Biso   1.000  Hf
  Br1      1.0000 0.50000  0.17123  0.61056  Biso   1.000  Br
  Br2      1.0000 0.00000  0.32877  0.38944  Biso   1.000  Br
  Hf2      1.0000 0.50000  0.44209  0.49717  Biso   1.000  Hf
  Br3      1.0000 1.00000  0.67587  0.58239  Biso   1.000  Br
  Br4      1.0000 0.50000  0.82413  0.41761  Biso   1.000  Br
