data_image0
_cell_length_a       3.27875
_cell_length_b       6.16105
_cell_length_c       18.6345
_cell_angle_alpha    90
_cell_angle_beta     90
_cell_angle_gamma    90

_symmetry_space_group_name_H-M    "P 1"
_symmetry_int_tables_number       1

loop_
  _symmetry_equiv_pos_as_xyz
  'x, y, z'

loop_
  _atom_site_label
  _atom_site_occupancy
  _atom_site_fract_x
  _atom_site_fract_y
  _atom_site_fract_z
  _atom_site_thermal_displace_type
  _atom_site_B_iso_or_equiv
  _atom_site_type_symbol
  Hf1      1.0000 0.00000  0.05097  0.50288  Biso   1.000  Hf
  Cl1      1.0000 0.50000  0.17159  0.60415  Biso   1.000  Cl
  Cl2      1.0000 0.00000  0.32841  0.39585  Biso   1.000  Cl
  Hf2      1.0000 0.50000  0.44903  0.49712  Biso   1.000  Hf
  Cl3      1.0000 1.00000  0.67750  0.57880  Biso   1.000  Cl
  Cl4      1.0000 0.50000  0.82250  0.42120  Biso   1.000  Cl
