data_image0
_cell_length_a       3.30786
_cell_length_b       3.30717
_cell_length_c       18.8558
_cell_angle_alpha    90
_cell_angle_beta     90
_cell_angle_gamma    120.007

_symmetry_space_group_name_H-M    "P 1"
_symmetry_int_tables_number       1

loop_
  _symmetry_equiv_pos_as_xyz
  'x, y, z'

loop_
  _atom_site_label
  _atom_site_occupancy
  _atom_site_fract_x
  _atom_site_fract_y
  _atom_site_fract_z
  _atom_site_thermal_displace_type
  _atom_site_B_iso_or_equiv
  _atom_site_type_symbol
  Cl1      1.0000 0.99865  0.99866  0.33902  Biso   1.000  Cl
  Cl2      1.0000 0.33468  0.66801  0.66105  Biso   1.000  Cl
  Hf1      1.0000 0.00077  0.00080  0.56461  Biso   1.000  Hf
  Hf2      1.0000 0.33257  0.66586  0.43546  Biso   1.000  Hf
