data_image0
_cell_length_a       3.11833
_cell_length_b       3.11849
_cell_length_c       18.8558
_cell_angle_alpha    90
_cell_angle_beta     90
_cell_angle_gamma    119.998

_symmetry_space_group_name_H-M    "P 1"
_symmetry_int_tables_number       1

loop_
  _symmetry_equiv_pos_as_xyz
  'x, y, z'

loop_
  _atom_site_label
  _atom_site_occupancy
  _atom_site_fract_x
  _atom_site_fract_y
  _atom_site_fract_z
  _atom_site_thermal_displace_type
  _atom_site_B_iso_or_equiv
  _atom_site_type_symbol
  F1       1.0000 0.99988  0.00012  0.35966  Biso   1.000  F
  F2       1.0000 0.33346  0.66655  0.64041  Biso   1.000  F
  Hf1      1.0000 0.00000  0.00004  0.56532  Biso   1.000  Hf
  Hf2      1.0000 0.33333  0.66663  0.43475  Biso   1.000  Hf
