data_image0
_cell_length_a       3.71622
_cell_length_b       6.82894
_cell_length_c       19.026
_cell_angle_alpha    90
_cell_angle_beta     90
_cell_angle_gamma    90

_symmetry_space_group_name_H-M    "P 1"
_symmetry_int_tables_number       1

loop_
  _symmetry_equiv_pos_as_xyz
  'x, y, z'

loop_
  _atom_site_label
  _atom_site_occupancy
  _atom_site_fract_x
  _atom_site_fract_y
  _atom_site_fract_z
  _atom_site_thermal_displace_type
  _atom_site_B_iso_or_equiv
  _atom_site_type_symbol
  Hf1      1.0000 0.00000  0.06705  0.50295  Biso   1.000  Hf
  I1       1.0000 0.50000  0.16874  0.61798  Biso   1.000  I
  I2       1.0000 0.00000  0.33126  0.38202  Biso   1.000  I
  Hf2      1.0000 0.50000  0.43295  0.49705  Biso   1.000  Hf
  I3       1.0000 0.00000  0.67156  0.58532  Biso   1.000  I
  I4       1.0000 0.50000  0.82844  0.41468  Biso   1.000  I
