data_image0
_cell_length_a       6.2193
_cell_length_b       6.8802
_cell_length_c       18.2485
_cell_angle_alpha    90
_cell_angle_beta     90
_cell_angle_gamma    116.87

_symmetry_space_group_name_H-M    "P 1"
_symmetry_int_tables_number       1

loop_
  _symmetry_equiv_pos_as_xyz
  'x, y, z'

loop_
  _atom_site_label
  _atom_site_occupancy
  _atom_site_fract_x
  _atom_site_fract_y
  _atom_site_fract_z
  _atom_site_thermal_displace_type
  _atom_site_B_iso_or_equiv
  _atom_site_type_symbol
  Hf1      1.0000 0.01449  0.98785  0.49925  Biso   1.000  Hf
  Hf2      1.0000 0.31883  0.67880  0.50079  Biso   1.000  Hf
  P1       1.0000 0.66808  0.34360  0.43807  Biso   1.000  P
  P2       1.0000 0.66531  0.32313  0.56199  Biso   1.000  P
  S1       1.0000 0.26653  0.91032  0.41119  Biso   1.000  S
  S2       1.0000 0.01553  0.34770  0.42372  Biso   1.000  S
  S3       1.0000 0.67569  0.66669  0.42724  Biso   1.000  S
  S4       1.0000 0.06677  0.75639  0.58884  Biso   1.000  S
  S5       1.0000 0.31775  0.31892  0.57631  Biso   1.000  S
  S6       1.0000 0.65772  1.00000  0.57280  Biso   1.000  S
