data_image0
_cell_length_a       6.89235
_cell_length_b       7.41814
_cell_length_c       18.7702
_cell_angle_alpha    90
_cell_angle_beta     90
_cell_angle_gamma    117.682

_symmetry_space_group_name_H-M    "P 1"
_symmetry_int_tables_number       1

loop_
  _symmetry_equiv_pos_as_xyz
  'x, y, z'

loop_
  _atom_site_label
  _atom_site_occupancy
  _atom_site_fract_x
  _atom_site_fract_y
  _atom_site_fract_z
  _atom_site_thermal_displace_type
  _atom_site_B_iso_or_equiv
  _atom_site_type_symbol
  Hf1      1.0000 0.00536  0.98424  0.49884  Biso   1.000  Hf
  Hf2      1.0000 0.32801  0.68244  0.50100  Biso   1.000  Hf
  P1       1.0000 0.65207  0.32249  0.44124  Biso   1.000  P
  P2       1.0000 0.68129  0.34423  0.55866  Biso   1.000  P
  Te1      1.0000 0.27140  0.92175  0.39645  Biso   1.000  Te
  Te2      1.0000 0.01578  0.33223  0.41085  Biso   1.000  Te
  Te3      1.0000 0.66303  0.66905  0.40892  Biso   1.000  Te
  Te4      1.0000 0.06192  0.74493  0.60346  Biso   1.000  Te
  Te5      1.0000 0.31755  0.33445  0.58904  Biso   1.000  Te
  Te6      1.0000 0.67030  0.99759  0.59098  Biso   1.000  Te
