data_image0
_cell_length_a       6.44897
_cell_length_b       7.08194
_cell_length_c       18.4414
_cell_angle_alpha    90
_cell_angle_beta     90
_cell_angle_gamma    117.085

_symmetry_space_group_name_H-M    "P 1"
_symmetry_int_tables_number       1

loop_
  _symmetry_equiv_pos_as_xyz
  'x, y, z'

loop_
  _atom_site_label
  _atom_site_occupancy
  _atom_site_fract_x
  _atom_site_fract_y
  _atom_site_fract_z
  _atom_site_thermal_displace_type
  _atom_site_B_iso_or_equiv
  _atom_site_type_symbol
  Hf1      1.0000 0.01185  0.98787  0.49935  Biso   1.000  Hf
  Hf2      1.0000 0.32149  0.67885  0.50065  Biso   1.000  Hf
  P1       1.0000 0.65877  0.33389  0.43913  Biso   1.000  P
  P2       1.0000 0.67457  0.33278  0.56086  Biso   1.000  P
  Se1      1.0000 0.26834  0.91273  0.40510  Biso   1.000  Se
  Se2      1.0000 0.01652  0.33879  0.41742  Biso   1.000  Se
  Se3      1.0000 0.67105  0.67172  0.41829  Biso   1.000  Se
  Se4      1.0000 0.06503  0.75393  0.59490  Biso   1.000  Se
  Se5      1.0000 0.31684  0.32790  0.58258  Biso   1.000  Se
  Se6      1.0000 0.66224  0.99495  0.58169  Biso   1.000  Se
