data_image0
_cell_length_a       4.14798
_cell_length_b       4.14891
_cell_length_c       18.8558
_cell_angle_alpha    90
_cell_angle_beta     90
_cell_angle_gamma    119.993

_symmetry_space_group_name_H-M    "P 1"
_symmetry_int_tables_number       1

loop_
  _symmetry_equiv_pos_as_xyz
  'x, y, z'

loop_
  _atom_site_label
  _atom_site_occupancy
  _atom_site_fract_x
  _atom_site_fract_y
  _atom_site_fract_z
  _atom_site_thermal_displace_type
  _atom_site_B_iso_or_equiv
  _atom_site_type_symbol
  S1       1.0000 1.00000  0.00007  0.41185  Biso   1.000  S
  S2       1.0000 0.33334  0.66659  0.58822  Biso   1.000  S
  Hf1      1.0000 0.00001  0.00004  0.54998  Biso   1.000  Hf
  Hf2      1.0000 0.33332  0.66663  0.45009  Biso   1.000  Hf
