data_image0
_cell_length_a       3.62639
_cell_length_b       3.62638
_cell_length_c       21.0352
_cell_angle_alpha    90
_cell_angle_beta     90
_cell_angle_gamma    120

_symmetry_space_group_name_H-M    "P 1"
_symmetry_int_tables_number       1

loop_
  _symmetry_equiv_pos_as_xyz
  'x, y, z'

loop_
  _atom_site_label
  _atom_site_occupancy
  _atom_site_fract_x
  _atom_site_fract_y
  _atom_site_fract_z
  _atom_site_thermal_displace_type
  _atom_site_B_iso_or_equiv
  _atom_site_type_symbol
  Hf1      1.0000 0.33330  0.66655  0.56922  Biso   1.000  Hf
  Se1      1.0000 0.66668  0.33340  0.35656  Biso   1.000  Se
  Se2      1.0000 1.00000  0.99997  0.64344  Biso   1.000  Se
  Hf2      1.0000 0.33340  0.66686  0.43078  Biso   1.000  Hf
