data_image0
_cell_length_a       4.17547
_cell_length_b       4.17874
_cell_length_c       17.9368
_cell_angle_alpha    90
_cell_angle_beta     90
_cell_angle_gamma    90

_symmetry_space_group_name_H-M    "P 1"
_symmetry_int_tables_number       1

loop_
  _symmetry_equiv_pos_as_xyz
  'x, y, z'

loop_
  _atom_site_label
  _atom_site_occupancy
  _atom_site_fract_x
  _atom_site_fract_y
  _atom_site_fract_z
  _atom_site_thermal_displace_type
  _atom_site_B_iso_or_equiv
  _atom_site_type_symbol
  Hf1      1.0000 0.00000  0.99996  0.50000  Biso   1.000  Hf
  Se1      1.0000 1.00000  0.50025  0.60066  Biso   1.000  Se
  Hf2      1.0000 0.50000  0.49991  0.50000  Biso   1.000  Hf
  Se2      1.0000 0.00000  0.49966  0.39934  Biso   1.000  Se
