data_image0
_cell_length_a       4.26561
_cell_length_b       4.26683
_cell_length_c       18.8558
_cell_angle_alpha    90
_cell_angle_beta     90
_cell_angle_gamma    119.991

_symmetry_space_group_name_H-M    "P 1"
_symmetry_int_tables_number       1

loop_
  _symmetry_equiv_pos_as_xyz
  'x, y, z'

loop_
  _atom_site_label
  _atom_site_occupancy
  _atom_site_fract_x
  _atom_site_fract_y
  _atom_site_fract_z
  _atom_site_thermal_displace_type
  _atom_site_B_iso_or_equiv
  _atom_site_type_symbol
  Se1      1.0000 0.00001  0.00008  0.40215  Biso   1.000  Se
  Se2      1.0000 0.33333  0.66659  0.59791  Biso   1.000  Se
  Hf1      1.0000 0.00001  0.00006  0.54898  Biso   1.000  Hf
  Hf2      1.0000 0.33332  0.66661  0.45110  Biso   1.000  Hf
