data_image0
_cell_length_a       5.45151
_cell_length_b       3.75101
_cell_length_c       21.1739
_cell_angle_alpha    90
_cell_angle_beta     90
_cell_angle_gamma    90

_symmetry_space_group_name_H-M    "P 1"
_symmetry_int_tables_number       1

loop_
  _symmetry_equiv_pos_as_xyz
  'x, y, z'

loop_
  _atom_site_label
  _atom_site_occupancy
  _atom_site_fract_x
  _atom_site_fract_y
  _atom_site_fract_z
  _atom_site_thermal_displace_type
  _atom_site_B_iso_or_equiv
  _atom_site_type_symbol
  Hf1      1.0000 0.63164  0.25000  0.56991  Biso   1.000  Hf
  Hf2      1.0000 0.13159  0.75000  0.43009  Biso   1.000  Hf
  Se1      1.0000 0.13163  0.25000  0.52374  Biso   1.000  Se
  Se2      1.0000 0.63159  0.75000  0.47626  Biso   1.000  Se
  Se3      1.0000 0.35052  0.25000  0.35374  Biso   1.000  Se
  Se4      1.0000 0.41270  0.75000  0.64626  Biso   1.000  Se
  Se5      1.0000 0.91242  0.25000  0.35381  Biso   1.000  Se
  Se6      1.0000 0.85080  0.75000  0.64619  Biso   1.000  Se
