data_image0
_cell_length_a       3.55062
_cell_length_b       3.55062
_cell_length_c       20.7084
_cell_angle_alpha    90
_cell_angle_beta     90
_cell_angle_gamma    120

_symmetry_space_group_name_H-M    "P 1"
_symmetry_int_tables_number       1

loop_
  _symmetry_equiv_pos_as_xyz
  'x, y, z'

loop_
  _atom_site_label
  _atom_site_occupancy
  _atom_site_fract_x
  _atom_site_fract_y
  _atom_site_fract_z
  _atom_site_thermal_displace_type
  _atom_site_B_iso_or_equiv
  _atom_site_type_symbol
  Hf1      1.0000 0.33339  0.66674  0.57110  Biso   1.000  Hf
  S1       1.0000 0.66669  0.33335  0.36217  Biso   1.000  S
  S2       1.0000 0.00002  0.00006  0.63783  Biso   1.000  S
  Hf2      1.0000 0.33343  0.66691  0.42890  Biso   1.000  Hf
