data_image0
_cell_length_a       3.5601
_cell_length_b       3.5603
_cell_length_c       20.7084
_cell_angle_alpha    90
_cell_angle_beta     90
_cell_angle_gamma    119.998

_symmetry_space_group_name_H-M    "P 1"
_symmetry_int_tables_number       1

loop_
  _symmetry_equiv_pos_as_xyz
  'x, y, z'

loop_
  _atom_site_label
  _atom_site_occupancy
  _atom_site_fract_x
  _atom_site_fract_y
  _atom_site_fract_z
  _atom_site_thermal_displace_type
  _atom_site_B_iso_or_equiv
  _atom_site_type_symbol
  Hf1      1.0000 0.33337  0.66668  0.57101  Biso   1.000  Hf
  S1       1.0000 0.66676  0.33349  0.36189  Biso   1.000  S
  S2       1.0000 0.00004  0.00009  0.63811  Biso   1.000  S
  Hf2      1.0000 0.33337  0.66679  0.42899  Biso   1.000  Hf
