data_image0
_cell_length_a       7.66895
_cell_length_b       6.61812
_cell_length_c       18.6943
_cell_angle_alpha    90
_cell_angle_beta     90
_cell_angle_gamma    90

_symmetry_space_group_name_H-M    "P 1"
_symmetry_int_tables_number       1

loop_
  _symmetry_equiv_pos_as_xyz
  'x, y, z'

loop_
  _atom_site_label
  _atom_site_occupancy
  _atom_site_fract_x
  _atom_site_fract_y
  _atom_site_fract_z
  _atom_site_thermal_displace_type
  _atom_site_B_iso_or_equiv
  _atom_site_type_symbol
  Ti1      1.0000 0.00079  0.00147  0.49956  Biso   1.000  Ti
  Ti2      1.0000 0.50074  0.00144  0.50013  Biso   1.000  Ti
  Hf1      1.0000 0.25094  0.49904  0.50010  Biso   1.000  Hf
  Hf2      1.0000 0.75092  0.49906  0.50011  Biso   1.000  Hf
  Te1      1.0000 0.00097  0.32707  0.40119  Biso   1.000  Te
  Te2      1.0000 0.25041  0.84243  0.59597  Biso   1.000  Te
  Te3      1.0000 0.00091  0.32598  0.59861  Biso   1.000  Te
  Te4      1.0000 0.25111  0.84254  0.40395  Biso   1.000  Te
  Te5      1.0000 0.50099  0.32652  0.40140  Biso   1.000  Te
  Te6      1.0000 0.75092  0.84245  0.59598  Biso   1.000  Te
  Te7      1.0000 0.50091  0.32638  0.59881  Biso   1.000  Te
  Te8      1.0000 0.75067  0.84255  0.40395  Biso   1.000  Te
