data_image0
_cell_length_a       3.7127
_cell_length_b       3.71272
_cell_length_c       21.4716
_cell_angle_alpha    90
_cell_angle_beta     90
_cell_angle_gamma    120

_symmetry_space_group_name_H-M    "P 1"
_symmetry_int_tables_number       1

loop_
  _symmetry_equiv_pos_as_xyz
  'x, y, z'

loop_
  _atom_site_label
  _atom_site_occupancy
  _atom_site_fract_x
  _atom_site_fract_y
  _atom_site_fract_z
  _atom_site_thermal_displace_type
  _atom_site_B_iso_or_equiv
  _atom_site_type_symbol
  Hf1      1.0000 0.33335  0.66670  0.56578  Biso   1.000  Hf
  Te1      1.0000 0.66668  0.33335  0.34930  Biso   1.000  Te
  Te2      1.0000 0.00002  0.00006  0.65070  Biso   1.000  Te
  Hf2      1.0000 0.33344  0.66688  0.43422  Biso   1.000  Hf
