data_image0
_cell_length_a       6.9189
_cell_length_b       5.97499
_cell_length_c       18.238
_cell_angle_alpha    90
_cell_angle_beta     90
_cell_angle_gamma    90

_symmetry_space_group_name_H-M    "P 1"
_symmetry_int_tables_number       1

loop_
  _symmetry_equiv_pos_as_xyz
  'x, y, z'

loop_
  _atom_site_label
  _atom_site_occupancy
  _atom_site_fract_x
  _atom_site_fract_y
  _atom_site_fract_z
  _atom_site_thermal_displace_type
  _atom_site_B_iso_or_equiv
  _atom_site_type_symbol
  Ti1      1.0000 0.00081  0.00317  0.48853  Biso   1.000  Ti
  Ti2      1.0000 0.50084  0.00318  0.51168  Biso   1.000  Ti
  Hf1      1.0000 0.25091  0.49874  0.49993  Biso   1.000  Hf
  Hf2      1.0000 0.75088  0.49877  0.49993  Biso   1.000  Hf
  S1       1.0000 0.00092  0.33171  0.41123  Biso   1.000  S
  S2       1.0000 0.24696  0.84451  0.58312  Biso   1.000  S
  S3       1.0000 0.00087  0.31747  0.58227  Biso   1.000  S
  S4       1.0000 0.25459  0.84472  0.41698  Biso   1.000  S
  S5       1.0000 0.50094  0.31739  0.41770  Biso   1.000  S
  S6       1.0000 0.75462  0.84434  0.58314  Biso   1.000  S
  S7       1.0000 0.50081  0.33189  0.58877  Biso   1.000  S
  S8       1.0000 0.74699  0.84494  0.41697  Biso   1.000  S
