data_image0
_cell_length_a       7.19283
_cell_length_b       6.21466
_cell_length_c       18.4193
_cell_angle_alpha    90
_cell_angle_beta     90
_cell_angle_gamma    90

_symmetry_space_group_name_H-M    "P 1"
_symmetry_int_tables_number       1

loop_
  _symmetry_equiv_pos_as_xyz
  'x, y, z'

loop_
  _atom_site_label
  _atom_site_occupancy
  _atom_site_fract_x
  _atom_site_fract_y
  _atom_site_fract_z
  _atom_site_thermal_displace_type
  _atom_site_B_iso_or_equiv
  _atom_site_type_symbol
  Ti1      1.0000 0.00095  0.00203  0.49311  Biso   1.000  Ti
  Ti2      1.0000 0.50086  0.00207  0.50725  Biso   1.000  Ti
  Hf1      1.0000 0.25082  0.49893  0.49992  Biso   1.000  Hf
  Hf2      1.0000 0.75075  0.49882  0.49991  Biso   1.000  Hf
  Se1      1.0000 0.00096  0.32948  0.40718  Biso   1.000  Se
  Se2      1.0000 0.24792  0.84322  0.58844  Biso   1.000  Se
  Se3      1.0000 0.00066  0.32056  0.58902  Biso   1.000  Se
  Se4      1.0000 0.25404  0.84419  0.41177  Biso   1.000  Se
  Se5      1.0000 0.50088  0.32123  0.41096  Biso   1.000  Se
  Se6      1.0000 0.75356  0.84305  0.58847  Biso   1.000  Se
  Se7      1.0000 0.50068  0.32912  0.59282  Biso   1.000  Se
  Se8      1.0000 0.74800  0.84421  0.41179  Biso   1.000  Se
