data_image0
_cell_length_a       5.95464
_cell_length_b       3.93875
_cell_length_c       21.8985
_cell_angle_alpha    90
_cell_angle_beta     90
_cell_angle_gamma    90

_symmetry_space_group_name_H-M    "P 1"
_symmetry_int_tables_number       1

loop_
  _symmetry_equiv_pos_as_xyz
  'x, y, z'

loop_
  _atom_site_label
  _atom_site_occupancy
  _atom_site_fract_x
  _atom_site_fract_y
  _atom_site_fract_z
  _atom_site_thermal_displace_type
  _atom_site_B_iso_or_equiv
  _atom_site_type_symbol
  Hf1      1.0000 0.63162  0.25000  0.57692  Biso   1.000  Hf
  Hf2      1.0000 0.13160  0.75000  0.42308  Biso   1.000  Hf
  Te1      1.0000 0.13160  0.25000  0.52405  Biso   1.000  Te
  Te2      1.0000 0.63162  0.75000  0.47595  Biso   1.000  Te
  Te3      1.0000 0.37099  0.25000  0.34711  Biso   1.000  Te
  Te4      1.0000 0.39223  0.75000  0.65289  Biso   1.000  Te
  Te5      1.0000 0.89218  0.25000  0.34712  Biso   1.000  Te
  Te6      1.0000 0.87104  0.75000  0.65288  Biso   1.000  Te
