data_image0
_cell_length_a       7.10525
_cell_length_b       6.16931
_cell_length_c       18.2797
_cell_angle_alpha    90
_cell_angle_beta     90
_cell_angle_gamma    90

_symmetry_space_group_name_H-M    "P 1"
_symmetry_int_tables_number       1

loop_
  _symmetry_equiv_pos_as_xyz
  'x, y, z'

loop_
  _atom_site_label
  _atom_site_occupancy
  _atom_site_fract_x
  _atom_site_fract_y
  _atom_site_fract_z
  _atom_site_thermal_displace_type
  _atom_site_B_iso_or_equiv
  _atom_site_type_symbol
  Zr1      1.0000 0.00099  0.00200  0.48670  Biso   1.000  Zr
  Zr2      1.0000 0.50110  0.00201  0.51349  Biso   1.000  Zr
  Hf1      1.0000 0.25118  0.50146  0.49973  Biso   1.000  Hf
  Hf2      1.0000 0.75111  0.50162  0.50018  Biso   1.000  Hf
  S1       1.0000 0.00077  0.34730  0.41029  Biso   1.000  S
  S2       1.0000 0.24067  0.83153  0.58567  Biso   1.000  S
  S3       1.0000 0.00146  0.32640  0.58161  Biso   1.000  S
  S4       1.0000 0.26142  0.83235  0.41428  Biso   1.000  S
  S5       1.0000 0.50124  0.32650  0.41842  Biso   1.000  S
  S6       1.0000 0.76167  0.83212  0.58581  Biso   1.000  S
  S7       1.0000 0.50115  0.34724  0.58971  Biso   1.000  S
  S8       1.0000 0.74034  0.83216  0.41445  Biso   1.000  S
