data_image0
_cell_length_a       7.27476
_cell_length_b       6.29335
_cell_length_c       18.4056
_cell_angle_alpha    90
_cell_angle_beta     90
_cell_angle_gamma    90

_symmetry_space_group_name_H-M    "P 1"
_symmetry_int_tables_number       1

loop_
  _symmetry_equiv_pos_as_xyz
  'x, y, z'

loop_
  _atom_site_label
  _atom_site_occupancy
  _atom_site_fract_x
  _atom_site_fract_y
  _atom_site_fract_z
  _atom_site_thermal_displace_type
  _atom_site_B_iso_or_equiv
  _atom_site_type_symbol
  Ti1      1.0000 0.00090  0.00024  0.49130  Biso   1.000  Ti
  Hf1      1.0000 0.50097  0.00264  0.50107  Biso   1.000  Hf
  Hf2      1.0000 0.24884  0.50014  0.50045  Biso   1.000  Hf
  Hf3      1.0000 0.75284  0.50021  0.50043  Biso   1.000  Hf
  Se1      1.0000 0.00081  0.32740  0.40748  Biso   1.000  Se
  Se2      1.0000 0.24102  0.83946  0.58786  Biso   1.000  Se
  Se3      1.0000 0.00082  0.31731  0.58771  Biso   1.000  Se
  Se4      1.0000 0.24624  0.83797  0.40795  Biso   1.000  Se
  Se5      1.0000 0.50079  0.33647  0.40813  Biso   1.000  Se
  Se6      1.0000 0.76080  0.83954  0.58783  Biso   1.000  Se
  Se7      1.0000 0.50082  0.33759  0.59252  Biso   1.000  Se
  Se8      1.0000 0.75578  0.83789  0.40794  Biso   1.000  Se
