data_image0
_cell_length_a       7.74849
_cell_length_b       6.69621
_cell_length_c       18.7321
_cell_angle_alpha    90
_cell_angle_beta     90
_cell_angle_gamma    90

_symmetry_space_group_name_H-M    "P 1"
_symmetry_int_tables_number       1

loop_
  _symmetry_equiv_pos_as_xyz
  'x, y, z'

loop_
  _atom_site_label
  _atom_site_occupancy
  _atom_site_fract_x
  _atom_site_fract_y
  _atom_site_fract_z
  _atom_site_thermal_displace_type
  _atom_site_B_iso_or_equiv
  _atom_site_type_symbol
  Ti1      1.0000 0.00074  0.99996  0.49951  Biso   1.000  Ti
  Hf1      1.0000 0.50078  0.00209  0.50001  Biso   1.000  Hf
  Hf2      1.0000 0.24970  0.50014  0.49996  Biso   1.000  Hf
  Hf3      1.0000 0.75245  0.50013  0.49995  Biso   1.000  Hf
  Te1      1.0000 0.00104  0.32462  0.40238  Biso   1.000  Te
  Te2      1.0000 0.24400  0.83768  0.59715  Biso   1.000  Te
  Te3      1.0000 0.00101  0.32342  0.59724  Biso   1.000  Te
  Te4      1.0000 0.24436  0.83820  0.40253  Biso   1.000  Te
  Te5      1.0000 0.50104  0.33678  0.40038  Biso   1.000  Te
  Te6      1.0000 0.75721  0.83775  0.59717  Biso   1.000  Te
  Te7      1.0000 0.50101  0.33630  0.59962  Biso   1.000  Te
  Te8      1.0000 0.75725  0.83833  0.40255  Biso   1.000  Te
