data_image0
_cell_length_a       7.00076
_cell_length_b       6.06099
_cell_length_c       18.2271
_cell_angle_alpha    90
_cell_angle_beta     90
_cell_angle_gamma    90

_symmetry_space_group_name_H-M    "P 1"
_symmetry_int_tables_number       1

loop_
  _symmetry_equiv_pos_as_xyz
  'x, y, z'

loop_
  _atom_site_label
  _atom_site_occupancy
  _atom_site_fract_x
  _atom_site_fract_y
  _atom_site_fract_z
  _atom_site_thermal_displace_type
  _atom_site_B_iso_or_equiv
  _atom_site_type_symbol
  Ti1      1.0000 0.00088  0.00062  0.48537  Biso   1.000  Ti
  Hf1      1.0000 0.50085  0.00328  0.50411  Biso   1.000  Hf
  Hf2      1.0000 0.24849  0.49983  0.50129  Biso   1.000  Hf
  Hf3      1.0000 0.75345  0.49982  0.50129  Biso   1.000  Hf
  S1       1.0000 0.00101  0.33033  0.41147  Biso   1.000  S
  S2       1.0000 0.23882  0.83933  0.58200  Biso   1.000  S
  S3       1.0000 0.00098  0.31205  0.58106  Biso   1.000  S
  S4       1.0000 0.24750  0.83843  0.41275  Biso   1.000  S
  S5       1.0000 0.50092  0.33558  0.41502  Biso   1.000  S
  S6       1.0000 0.76286  0.83922  0.58199  Biso   1.000  S
  S7       1.0000 0.50098  0.33929  0.58853  Biso   1.000  S
  S8       1.0000 0.75400  0.83871  0.41280  Biso   1.000  S
