data_image0
_cell_length_a       7.36487
_cell_length_b       6.37886
_cell_length_c       18.4282
_cell_angle_alpha    90
_cell_angle_beta     90
_cell_angle_gamma    90

_symmetry_space_group_name_H-M    "P 1"
_symmetry_int_tables_number       1

loop_
  _symmetry_equiv_pos_as_xyz
  'x, y, z'

loop_
  _atom_site_label
  _atom_site_occupancy
  _atom_site_fract_x
  _atom_site_fract_y
  _atom_site_fract_z
  _atom_site_thermal_displace_type
  _atom_site_B_iso_or_equiv
  _atom_site_type_symbol
  Zr1      1.0000 0.00061  0.00120  0.49044  Biso   1.000  Zr
  Hf1      1.0000 0.50060  0.00066  0.50207  Biso   1.000  Hf
  Hf2      1.0000 0.25080  0.50107  0.50201  Biso   1.000  Hf
  Hf3      1.0000 0.75029  0.50108  0.50206  Biso   1.000  Hf
  Se1      1.0000 0.00044  0.34373  0.40699  Biso   1.000  Se
  Se2      1.0000 0.24757  0.83642  0.58975  Biso   1.000  Se
  Se3      1.0000 0.00054  0.32956  0.58963  Biso   1.000  Se
  Se4      1.0000 0.25678  0.83016  0.40699  Biso   1.000  Se
  Se5      1.0000 0.50051  0.33257  0.41055  Biso   1.000  Se
  Se6      1.0000 0.75372  0.83644  0.58976  Biso   1.000  Se
  Se7      1.0000 0.50048  0.33553  0.59301  Biso   1.000  Se
  Se8      1.0000 0.74448  0.83012  0.40700  Biso   1.000  Se
