data_image0
_cell_length_a       7.82865
_cell_length_b       6.77285
_cell_length_c       18.7096
_cell_angle_alpha    90
_cell_angle_beta     90
_cell_angle_gamma    90

_symmetry_space_group_name_H-M    "P 1"
_symmetry_int_tables_number       1

loop_
  _symmetry_equiv_pos_as_xyz
  'x, y, z'

loop_
  _atom_site_label
  _atom_site_occupancy
  _atom_site_fract_x
  _atom_site_fract_y
  _atom_site_fract_z
  _atom_site_thermal_displace_type
  _atom_site_B_iso_or_equiv
  _atom_site_type_symbol
  Zr1      1.0000 0.00064  0.00095  0.49932  Biso   1.000  Zr
  Hf1      1.0000 0.50083  0.00013  0.50038  Biso   1.000  Hf
  Hf2      1.0000 0.25103  0.50092  0.50030  Biso   1.000  Hf
  Hf3      1.0000 0.75086  0.50099  0.50032  Biso   1.000  Hf
  Te1      1.0000 0.00098  0.33684  0.40088  Biso   1.000  Te
  Te2      1.0000 0.25128  0.83366  0.59909  Biso   1.000  Te
  Te3      1.0000 0.00086  0.33526  0.59900  Biso   1.000  Te
  Te4      1.0000 0.25240  0.83319  0.40089  Biso   1.000  Te
  Te5      1.0000 0.50101  0.33397  0.40155  Biso   1.000  Te
  Te6      1.0000 0.74998  0.83345  0.59914  Biso   1.000  Te
  Te7      1.0000 0.50088  0.33414  0.59909  Biso   1.000  Te
  Te8      1.0000 0.74914  0.83314  0.40086  Biso   1.000  Te
