data_image0
_cell_length_a       7.09671
_cell_length_b       6.15344
_cell_length_c       18.2489
_cell_angle_alpha    90
_cell_angle_beta     90
_cell_angle_gamma    90

_symmetry_space_group_name_H-M    "P 1"
_symmetry_int_tables_number       1

loop_
  _symmetry_equiv_pos_as_xyz
  'x, y, z'

loop_
  _atom_site_label
  _atom_site_occupancy
  _atom_site_fract_x
  _atom_site_fract_y
  _atom_site_fract_z
  _atom_site_thermal_displace_type
  _atom_site_B_iso_or_equiv
  _atom_site_type_symbol
  Zr1      1.0000 0.00072  0.00150  0.48452  Biso   1.000  Zr
  Hf1      1.0000 0.50078  0.00105  0.50531  Biso   1.000  Hf
  Hf2      1.0000 0.25106  0.50087  0.50259  Biso   1.000  Hf
  Hf3      1.0000 0.75067  0.50086  0.50271  Biso   1.000  Hf
  S1       1.0000 0.00081  0.34874  0.41098  Biso   1.000  S
  S2       1.0000 0.24445  0.83673  0.58366  Biso   1.000  S
  S3       1.0000 0.00084  0.32455  0.58266  Biso   1.000  S
  S4       1.0000 0.26062  0.82887  0.41194  Biso   1.000  S
  S5       1.0000 0.50092  0.33000  0.41729  Biso   1.000  S
  S6       1.0000 0.75711  0.83683  0.58370  Biso   1.000  S
  S7       1.0000 0.50078  0.33805  0.58902  Biso   1.000  S
  S8       1.0000 0.74078  0.82873  0.41197  Biso   1.000  S
