data_image0
_cell_length_a       7.09411
_cell_length_b       7.13087
_cell_length_c       18.7454
_cell_angle_alpha    90
_cell_angle_beta     90
_cell_angle_gamma    119.83

_symmetry_space_group_name_H-M    "P 1"
_symmetry_int_tables_number       1

loop_
  _symmetry_equiv_pos_as_xyz
  'x, y, z'

loop_
  _atom_site_label
  _atom_site_occupancy
  _atom_site_fract_x
  _atom_site_fract_y
  _atom_site_fract_z
  _atom_site_thermal_displace_type
  _atom_site_B_iso_or_equiv
  _atom_site_type_symbol
  Hf1      1.0000 0.00053  0.99886  0.50052  Biso   1.000  Hf
  S1       1.0000 0.33268  0.16794  0.57833  Biso   1.000  S
  Br1      1.0000 0.33345  0.16653  0.39972  Biso   1.000  Br
  Hf2      1.0000 0.00053  0.49886  0.49948  Biso   1.000  Hf
  Br2      1.0000 0.33345  0.66653  0.60028  Biso   1.000  Br
  S2       1.0000 0.33268  0.66794  0.42167  Biso   1.000  S
  Hf3      1.0000 0.50053  0.99886  0.49948  Biso   1.000  Hf
  Br3      1.0000 0.83345  0.16653  0.60028  Biso   1.000  Br
  S3       1.0000 0.83268  0.16794  0.42167  Biso   1.000  S
  Hf4      1.0000 0.50053  0.49886  0.50052  Biso   1.000  Hf
  S4       1.0000 0.83268  0.66794  0.57833  Biso   1.000  S
  Br4      1.0000 0.83345  0.66653  0.39972  Biso   1.000  Br
