data_image0
_cell_length_a       7.23823
_cell_length_b       7.26149
_cell_length_c       18.633
_cell_angle_alpha    90
_cell_angle_beta     90
_cell_angle_gamma    119.894

_symmetry_space_group_name_H-M    "P 1"
_symmetry_int_tables_number       1

loop_
  _symmetry_equiv_pos_as_xyz
  'x, y, z'

loop_
  _atom_site_label
  _atom_site_occupancy
  _atom_site_fract_x
  _atom_site_fract_y
  _atom_site_fract_z
  _atom_site_thermal_displace_type
  _atom_site_B_iso_or_equiv
  _atom_site_type_symbol
  Hf1      1.0000 0.00043  0.99928  0.50060  Biso   1.000  Hf
  Se1      1.0000 0.33275  0.16752  0.58811  Biso   1.000  Se
  Br1      1.0000 0.33349  0.16653  0.40236  Biso   1.000  Br
  Hf2      1.0000 0.00043  0.49928  0.49940  Biso   1.000  Hf
  Br2      1.0000 0.33349  0.66653  0.59764  Biso   1.000  Br
  Se2      1.0000 0.33275  0.66752  0.41189  Biso   1.000  Se
  Hf3      1.0000 0.50043  0.99928  0.49940  Biso   1.000  Hf
  Br3      1.0000 0.83349  0.16653  0.59764  Biso   1.000  Br
  Se3      1.0000 0.83275  0.16752  0.41189  Biso   1.000  Se
  Hf4      1.0000 0.50043  0.49928  0.50060  Biso   1.000  Hf
  Se4      1.0000 0.83275  0.66752  0.58811  Biso   1.000  Se
  Br4      1.0000 0.83349  0.66653  0.40236  Biso   1.000  Br
