data_image0
_cell_length_a       7.23752
_cell_length_b       7.26045
_cell_length_c       18.633
_cell_angle_alpha    90
_cell_angle_beta     90
_cell_angle_gamma    119.896

_symmetry_space_group_name_H-M    "P 1"
_symmetry_int_tables_number       1

loop_
  _symmetry_equiv_pos_as_xyz
  'x, y, z'

loop_
  _atom_site_label
  _atom_site_occupancy
  _atom_site_fract_x
  _atom_site_fract_y
  _atom_site_fract_z
  _atom_site_thermal_displace_type
  _atom_site_B_iso_or_equiv
  _atom_site_type_symbol
  Hf1      1.0000 0.00025  0.99924  0.50050  Biso   1.000  Hf
  Se1      1.0000 0.33298  0.16746  0.58808  Biso   1.000  Se
  Br1      1.0000 0.33344  0.16663  0.40251  Biso   1.000  Br
  Hf2      1.0000 0.00025  0.49924  0.49950  Biso   1.000  Hf
  Br2      1.0000 0.33344  0.66663  0.59749  Biso   1.000  Br
  Se2      1.0000 0.33298  0.66746  0.41192  Biso   1.000  Se
  Hf3      1.0000 0.50025  0.99924  0.49950  Biso   1.000  Hf
  Br3      1.0000 0.83344  0.16663  0.59749  Biso   1.000  Br
  Se3      1.0000 0.83298  0.16746  0.41192  Biso   1.000  Se
  Hf4      1.0000 0.50025  0.49924  0.50050  Biso   1.000  Hf
  Se4      1.0000 0.83298  0.66746  0.58808  Biso   1.000  Se
  Br4      1.0000 0.83344  0.66663  0.40251  Biso   1.000  Br
