data_image0
_cell_length_a       6.50641
_cell_length_b       6.66335
_cell_length_c       19.0835
_cell_angle_alpha    90
_cell_angle_beta     90
_cell_angle_gamma    119.224

_symmetry_space_group_name_H-M    "P 1"
_symmetry_int_tables_number       1

loop_
  _symmetry_equiv_pos_as_xyz
  'x, y, z'

loop_
  _atom_site_label
  _atom_site_occupancy
  _atom_site_fract_x
  _atom_site_fract_y
  _atom_site_fract_z
  _atom_site_thermal_displace_type
  _atom_site_B_iso_or_equiv
  _atom_site_type_symbol
  Hf1      1.0000 0.00416  0.99277  0.50400  Biso   1.000  Hf
  O1       1.0000 0.33345  0.16953  0.54853  Biso   1.000  O
  Br1      1.0000 0.32906  0.17111  0.39301  Biso   1.000  Br
  Hf2      1.0000 0.00416  0.49277  0.49600  Biso   1.000  Hf
  Br2      1.0000 0.32906  0.67111  0.60699  Biso   1.000  Br
  O2       1.0000 0.33345  0.66953  0.45147  Biso   1.000  O
  Hf3      1.0000 0.50416  0.99277  0.49600  Biso   1.000  Hf
  Br3      1.0000 0.82906  0.17111  0.60699  Biso   1.000  Br
  O3       1.0000 0.83345  0.16953  0.45147  Biso   1.000  O
  Hf4      1.0000 0.50416  0.49277  0.50400  Biso   1.000  Hf
  O4       1.0000 0.83345  0.66953  0.54853  Biso   1.000  O
  Br4      1.0000 0.82906  0.67111  0.39301  Biso   1.000  Br
