data_image0
_cell_length_a       3.27943
_cell_length_b       3.27943
_cell_length_c       25.0331
_cell_angle_alpha    90
_cell_angle_beta     90
_cell_angle_gamma    120

_symmetry_space_group_name_H-M    "P 1"
_symmetry_int_tables_number       1

loop_
  _symmetry_equiv_pos_as_xyz
  'x, y, z'

loop_
  _atom_site_label
  _atom_site_occupancy
  _atom_site_fract_x
  _atom_site_fract_y
  _atom_site_fract_z
  _atom_site_thermal_displace_type
  _atom_site_B_iso_or_equiv
  _atom_site_type_symbol
  Hf1      1.0000 0.33333  0.66667  0.44591  Biso   1.000  Hf
  Hf2      1.0000 0.66667  0.33333  0.55406  Biso   1.000  Hf
  Hf3      1.0000 0.00000  0.00000  0.33666  Biso   1.000  Hf
  Hf4      1.0000 0.00000  0.00000  0.66333  Biso   1.000  Hf
  C1       1.0000 0.00000  0.00000  0.49998  Biso   1.000  C
  C2       1.0000 0.66667  0.33333  0.39178  Biso   1.000  C
  C3       1.0000 0.33333  0.66667  0.60820  Biso   1.000  C
  O1       1.0000 0.66667  0.33333  0.70099  Biso   1.000  O
  O2       1.0000 0.33333  0.66667  0.29900  Biso   1.000  O
