data_image0
_cell_length_a       6.44208
_cell_length_b       6.5525
_cell_length_c       18.7234
_cell_angle_alpha    90
_cell_angle_beta     90
_cell_angle_gamma    119.444

_symmetry_space_group_name_H-M    "P 1"
_symmetry_int_tables_number       1

loop_
  _symmetry_equiv_pos_as_xyz
  'x, y, z'

loop_
  _atom_site_label
  _atom_site_occupancy
  _atom_site_fract_x
  _atom_site_fract_y
  _atom_site_fract_z
  _atom_site_thermal_displace_type
  _atom_site_B_iso_or_equiv
  _atom_site_type_symbol
  Hf1      1.0000 0.00476  0.99297  0.50379  Biso   1.000  Hf
  O1       1.0000 0.33276  0.16936  0.55221  Biso   1.000  O
  Cl1      1.0000 0.32913  0.17104  0.40057  Biso   1.000  Cl
  Hf2      1.0000 0.00476  0.49297  0.49621  Biso   1.000  Hf
  Cl2      1.0000 0.32913  0.67104  0.59943  Biso   1.000  Cl
  O2       1.0000 0.33276  0.66936  0.44779  Biso   1.000  O
  Hf3      1.0000 0.50476  0.99297  0.49621  Biso   1.000  Hf
  Cl3      1.0000 0.82913  0.17104  0.59943  Biso   1.000  Cl
  O3       1.0000 0.83276  0.16936  0.44779  Biso   1.000  O
  Hf4      1.0000 0.50476  0.49297  0.50379  Biso   1.000  Hf
  O4       1.0000 0.83276  0.66936  0.55221  Biso   1.000  O
  Cl4      1.0000 0.82913  0.67104  0.40057  Biso   1.000  Cl
