data_image0
_cell_length_a       7.0797
_cell_length_b       7.11535
_cell_length_c       18.3868
_cell_angle_alpha    90
_cell_angle_beta     90
_cell_angle_gamma    119.834

_symmetry_space_group_name_H-M    "P 1"
_symmetry_int_tables_number       1

loop_
  _symmetry_equiv_pos_as_xyz
  'x, y, z'

loop_
  _atom_site_label
  _atom_site_occupancy
  _atom_site_fract_x
  _atom_site_fract_y
  _atom_site_fract_z
  _atom_site_thermal_displace_type
  _atom_site_B_iso_or_equiv
  _atom_site_type_symbol
  Hf1      1.0000 0.00029  0.99917  0.50065  Biso   1.000  Hf
  Se1      1.0000 0.33256  0.16802  0.59217  Biso   1.000  Se
  Cl1      1.0000 0.33382  0.16614  0.41060  Biso   1.000  Cl
  Hf2      1.0000 0.00029  0.49917  0.49935  Biso   1.000  Hf
  Cl2      1.0000 0.33382  0.66614  0.58940  Biso   1.000  Cl
  Se2      1.0000 0.33256  0.66802  0.40783  Biso   1.000  Se
  Hf3      1.0000 0.50029  0.99917  0.49935  Biso   1.000  Hf
  Cl3      1.0000 0.83382  0.16614  0.58940  Biso   1.000  Cl
  Se3      1.0000 0.83256  0.16802  0.40783  Biso   1.000  Se
  Hf4      1.0000 0.50029  0.49917  0.50065  Biso   1.000  Hf
  Se4      1.0000 0.83256  0.66802  0.59217  Biso   1.000  Se
  Cl4      1.0000 0.83382  0.66614  0.41060  Biso   1.000  Cl
