data_image0
_cell_length_a       6.96151
_cell_length_b       6.99226
_cell_length_c       18.3931
_cell_angle_alpha    90
_cell_angle_beta     90
_cell_angle_gamma    119.855

_symmetry_space_group_name_H-M    "P 1"
_symmetry_int_tables_number       1

loop_
  _symmetry_equiv_pos_as_xyz
  'x, y, z'

loop_
  _atom_site_label
  _atom_site_occupancy
  _atom_site_fract_x
  _atom_site_fract_y
  _atom_site_fract_z
  _atom_site_thermal_displace_type
  _atom_site_B_iso_or_equiv
  _atom_site_type_symbol
  Hf1      1.0000 0.00048  0.99900  0.50052  Biso   1.000  Hf
  S1       1.0000 0.33235  0.16820  0.58276  Biso   1.000  S
  Cl1      1.0000 0.33384  0.16613  0.40744  Biso   1.000  Cl
  Hf2      1.0000 0.00048  0.49900  0.49948  Biso   1.000  Hf
  Cl2      1.0000 0.33384  0.66613  0.59256  Biso   1.000  Cl
  S2       1.0000 0.33235  0.66820  0.41724  Biso   1.000  S
  Hf3      1.0000 0.50048  0.99900  0.49948  Biso   1.000  Hf
  Cl3      1.0000 0.83384  0.16613  0.59256  Biso   1.000  Cl
  S3       1.0000 0.83235  0.16820  0.41724  Biso   1.000  S
  Hf4      1.0000 0.50048  0.49900  0.50052  Biso   1.000  Hf
  S4       1.0000 0.83235  0.66820  0.58276  Biso   1.000  S
  Cl4      1.0000 0.83384  0.66613  0.40744  Biso   1.000  Cl
