data_image0
_cell_length_a       6.95763
_cell_length_b       6.98096
_cell_length_c       18.3931
_cell_angle_alpha    90
_cell_angle_beta     90
_cell_angle_gamma    119.889

_symmetry_space_group_name_H-M    "P 1"
_symmetry_int_tables_number       1

loop_
  _symmetry_equiv_pos_as_xyz
  'x, y, z'

loop_
  _atom_site_label
  _atom_site_occupancy
  _atom_site_fract_x
  _atom_site_fract_y
  _atom_site_fract_z
  _atom_site_thermal_displace_type
  _atom_site_B_iso_or_equiv
  _atom_site_type_symbol
  Hf1      1.0000 0.00045  0.99921  0.50035  Biso   1.000  Hf
  S1       1.0000 0.33253  0.16782  0.58290  Biso   1.000  S
  Cl1      1.0000 0.33369  0.16631  0.40776  Biso   1.000  Cl
  Hf2      1.0000 0.00045  0.49921  0.49965  Biso   1.000  Hf
  Cl2      1.0000 0.33369  0.66631  0.59224  Biso   1.000  Cl
  S2       1.0000 0.33253  0.66782  0.41710  Biso   1.000  S
  Hf3      1.0000 0.50045  0.99921  0.49965  Biso   1.000  Hf
  Cl3      1.0000 0.83369  0.16631  0.59224  Biso   1.000  Cl
  S3       1.0000 0.83253  0.16782  0.41710  Biso   1.000  S
  Hf4      1.0000 0.50045  0.49921  0.50035  Biso   1.000  Hf
  S4       1.0000 0.83253  0.66782  0.58290  Biso   1.000  S
  Cl4      1.0000 0.83369  0.66631  0.40776  Biso   1.000  Cl
