data_image0
_cell_length_a       3.22642
_cell_length_b       3.22642
_cell_length_c       25.3181
_cell_angle_alpha    90
_cell_angle_beta     90
_cell_angle_gamma    120

_symmetry_space_group_name_H-M    "P 1"
_symmetry_int_tables_number       1

loop_
  _symmetry_equiv_pos_as_xyz
  'x, y, z'

loop_
  _atom_site_label
  _atom_site_occupancy
  _atom_site_fract_x
  _atom_site_fract_y
  _atom_site_fract_z
  _atom_site_thermal_displace_type
  _atom_site_B_iso_or_equiv
  _atom_site_type_symbol
  Hf1      1.0000 0.33333  0.66667  0.44682  Biso   1.000  Hf
  Hf2      1.0000 0.66667  0.33333  0.55302  Biso   1.000  Hf
  Hf3      1.0000 0.00000  0.00000  0.35021  Biso   1.000  Hf
  Hf4      1.0000 0.00000  0.00000  0.64964  Biso   1.000  Hf
  N1       1.0000 0.00000  0.00000  0.49992  Biso   1.000  N
  N2       1.0000 0.66667  0.33333  0.39558  Biso   1.000  N
  N3       1.0000 0.33333  0.66667  0.60426  Biso   1.000  N
  F1       1.0000 0.66667  0.33333  0.70364  Biso   1.000  F
  F2       1.0000 0.33333  0.66667  0.29620  Biso   1.000  F
