data_image0
_cell_length_a       6.55884
_cell_length_b       6.86395
_cell_length_c       19.5502
_cell_angle_alpha    90
_cell_angle_beta     90
_cell_angle_gamma    118.54

_symmetry_space_group_name_H-M    "P 1"
_symmetry_int_tables_number       1

loop_
  _symmetry_equiv_pos_as_xyz
  'x, y, z'

loop_
  _atom_site_label
  _atom_site_occupancy
  _atom_site_fract_x
  _atom_site_fract_y
  _atom_site_fract_z
  _atom_site_thermal_displace_type
  _atom_site_B_iso_or_equiv
  _atom_site_type_symbol
  Hf1      1.0000 0.00232  0.99139  0.50429  Biso   1.000  Hf
  O1       1.0000 0.33494  0.17055  0.54346  Biso   1.000  O
  I1       1.0000 0.32948  0.17159  0.38363  Biso   1.000  I
  Hf2      1.0000 0.00232  0.49139  0.49571  Biso   1.000  Hf
  I2       1.0000 0.32948  0.67159  0.61637  Biso   1.000  I
  O2       1.0000 0.33494  0.67055  0.45654  Biso   1.000  O
  Hf3      1.0000 0.50232  0.99139  0.49571  Biso   1.000  Hf
  I3       1.0000 0.82948  0.17159  0.61637  Biso   1.000  I
  O3       1.0000 0.83494  0.17055  0.45654  Biso   1.000  O
  Hf4      1.0000 0.50232  0.49139  0.50429  Biso   1.000  Hf
  O4       1.0000 0.83495  0.67055  0.54346  Biso   1.000  O
  I4       1.0000 0.82948  0.67159  0.38363  Biso   1.000  I
