data_image0
_cell_length_a       7.25191
_cell_length_b       7.35302
_cell_length_c       19.1859
_cell_angle_alpha    90
_cell_angle_beta     90
_cell_angle_gamma    119.546

_symmetry_space_group_name_H-M    "P 1"
_symmetry_int_tables_number       1

loop_
  _symmetry_equiv_pos_as_xyz
  'x, y, z'

loop_
  _atom_site_label
  _atom_site_occupancy
  _atom_site_fract_x
  _atom_site_fract_y
  _atom_site_fract_z
  _atom_site_thermal_displace_type
  _atom_site_B_iso_or_equiv
  _atom_site_type_symbol
  Hf1      1.0000 0.00035  0.99810  0.50053  Biso   1.000  Hf
  S1       1.0000 0.33318  0.16820  0.57261  Biso   1.000  S
  I1       1.0000 0.33314  0.16703  0.39041  Biso   1.000  I
  Hf2      1.0000 0.00035  0.49810  0.49947  Biso   1.000  Hf
  I2       1.0000 0.33314  0.66703  0.60959  Biso   1.000  I
  S2       1.0000 0.33318  0.66820  0.42739  Biso   1.000  S
  Hf3      1.0000 0.50035  0.99810  0.49947  Biso   1.000  Hf
  I3       1.0000 0.83314  0.16703  0.60959  Biso   1.000  I
  S3       1.0000 0.83318  0.16820  0.42739  Biso   1.000  S
  Hf4      1.0000 0.50035  0.49810  0.50053  Biso   1.000  Hf
  S4       1.0000 0.83318  0.66820  0.57261  Biso   1.000  S
  I4       1.0000 0.83314  0.66703  0.39041  Biso   1.000  I
