data_image0
_cell_length_a       7.24796
_cell_length_b       7.34905
_cell_length_c       19.1859
_cell_angle_alpha    90
_cell_angle_beta     90
_cell_angle_gamma    119.546

_symmetry_space_group_name_H-M    "P 1"
_symmetry_int_tables_number       1

loop_
  _symmetry_equiv_pos_as_xyz
  'x, y, z'

loop_
  _atom_site_label
  _atom_site_occupancy
  _atom_site_fract_x
  _atom_site_fract_y
  _atom_site_fract_z
  _atom_site_thermal_displace_type
  _atom_site_B_iso_or_equiv
  _atom_site_type_symbol
  Hf1      1.0000 0.00065  0.99795  0.50054  Biso   1.000  Hf
  S1       1.0000 0.33321  0.16791  0.57271  Biso   1.000  S
  I1       1.0000 0.33281  0.16747  0.39091  Biso   1.000  I
  Hf2      1.0000 0.00065  0.49795  0.49946  Biso   1.000  Hf
  I2       1.0000 0.33281  0.66747  0.60909  Biso   1.000  I
  S2       1.0000 0.33321  0.66791  0.42729  Biso   1.000  S
  Hf3      1.0000 0.50065  0.99795  0.49946  Biso   1.000  Hf
  I3       1.0000 0.83281  0.16747  0.60909  Biso   1.000  I
  S3       1.0000 0.83321  0.16791  0.42729  Biso   1.000  S
  Hf4      1.0000 0.50065  0.49795  0.50054  Biso   1.000  Hf
  S4       1.0000 0.83321  0.66791  0.57271  Biso   1.000  S
  I4       1.0000 0.83281  0.66747  0.39091  Biso   1.000  I
