data_image0
_cell_length_a       6.80557
_cell_length_b       5.88911
_cell_length_c       18.1685
_cell_angle_alpha    90
_cell_angle_beta     90
_cell_angle_gamma    90

_symmetry_space_group_name_H-M    "P 1"
_symmetry_int_tables_number       1

loop_
  _symmetry_equiv_pos_as_xyz
  'x, y, z'

loop_
  _atom_site_label
  _atom_site_occupancy
  _atom_site_fract_x
  _atom_site_fract_y
  _atom_site_fract_z
  _atom_site_thermal_displace_type
  _atom_site_B_iso_or_equiv
  _atom_site_type_symbol
  Ti1      1.0000 0.00499  0.00293  0.49249  Biso   1.000  Ti
  Ti2      1.0000 0.49905  0.00246  0.51146  Biso   1.000  Ti
  Ti3      1.0000 0.25199  0.49841  0.49386  Biso   1.000  Ti
  Hf1      1.0000 0.75209  0.50192  0.50373  Biso   1.000  Hf
  S1       1.0000 0.00630  0.33609  0.41280  Biso   1.000  S
  S2       1.0000 0.24630  0.82550  0.58142  Biso   1.000  S
  S3       1.0000 0.01497  0.32271  0.58158  Biso   1.000  S
  S4       1.0000 0.25733  0.83620  0.41715  Biso   1.000  S
  S5       1.0000 0.49626  0.32439  0.41828  Biso   1.000  S
  S6       1.0000 0.75596  0.84980  0.58656  Biso   1.000  S
  S7       1.0000 0.49007  0.33473  0.58720  Biso   1.000  S
  S8       1.0000 0.74849  0.84826  0.41831  Biso   1.000  S
