data_image0
_cell_length_a       7.0926
_cell_length_b       6.13204
_cell_length_c       18.3352
_cell_angle_alpha    90
_cell_angle_beta     90
_cell_angle_gamma    90

_symmetry_space_group_name_H-M    "P 1"
_symmetry_int_tables_number       1

loop_
  _symmetry_equiv_pos_as_xyz
  'x, y, z'

loop_
  _atom_site_label
  _atom_site_occupancy
  _atom_site_fract_x
  _atom_site_fract_y
  _atom_site_fract_z
  _atom_site_thermal_displace_type
  _atom_site_B_iso_or_equiv
  _atom_site_type_symbol
  Ti1      1.0000 0.00304  0.00175  0.49715  Biso   1.000  Ti
  Ti2      1.0000 0.49858  0.00164  0.50485  Biso   1.000  Ti
  Ti3      1.0000 0.25085  0.49816  0.49839  Biso   1.000  Ti
  Hf1      1.0000 0.75078  0.50139  0.50050  Biso   1.000  Hf
  Se1      1.0000 0.00801  0.33162  0.40905  Biso   1.000  Se
  Se2      1.0000 0.24823  0.82914  0.58758  Biso   1.000  Se
  Se3      1.0000 0.00949  0.32691  0.58880  Biso   1.000  Se
  Se4      1.0000 0.25318  0.83267  0.41262  Biso   1.000  Se
  Se5      1.0000 0.49343  0.32706  0.41117  Biso   1.000  Se
  Se6      1.0000 0.75235  0.84672  0.59040  Biso   1.000  Se
  Se7      1.0000 0.49234  0.33157  0.59095  Biso   1.000  Se
  Se8      1.0000 0.74932  0.84781  0.41113  Biso   1.000  Se
