data_image0
_cell_length_a       7.83972
_cell_length_b       6.78178
_cell_length_c       18.7279
_cell_angle_alpha    90
_cell_angle_beta     90
_cell_angle_gamma    90

_symmetry_space_group_name_H-M    "P 1"
_symmetry_int_tables_number       1

loop_
  _symmetry_equiv_pos_as_xyz
  'x, y, z'

loop_
  _atom_site_label
  _atom_site_occupancy
  _atom_site_fract_x
  _atom_site_fract_y
  _atom_site_fract_z
  _atom_site_thermal_displace_type
  _atom_site_B_iso_or_equiv
  _atom_site_type_symbol
  Zr1      1.0000 0.00054  0.00039  0.49924  Biso   1.000  Zr
  Zr2      1.0000 0.50097  0.00053  0.50050  Biso   1.000  Zr
  Zr3      1.0000 0.25083  0.50142  0.50019  Biso   1.000  Zr
  Hf1      1.0000 0.75088  0.50052  0.50051  Biso   1.000  Hf
  Te1      1.0000 0.99960  0.33576  0.40083  Biso   1.000  Te
  Te2      1.0000 0.25025  0.83459  0.59947  Biso   1.000  Te
  Te3      1.0000 0.99979  0.33416  0.59913  Biso   1.000  Te
  Te4      1.0000 0.25137  0.83430  0.40047  Biso   1.000  Te
  Te5      1.0000 0.50223  0.33496  0.40122  Biso   1.000  Te
  Te6      1.0000 0.75122  0.83258  0.59929  Biso   1.000  Te
  Te7      1.0000 0.50185  0.33525  0.59953  Biso   1.000  Te
  Te8      1.0000 0.75016  0.83195  0.40085  Biso   1.000  Te
