data_image0
_cell_length_a       7.3867
_cell_length_b       6.40425
_cell_length_c       18.4653
_cell_angle_alpha    90
_cell_angle_beta     90
_cell_angle_gamma    90

_symmetry_space_group_name_H-M    "P 1"
_symmetry_int_tables_number       1

loop_
  _symmetry_equiv_pos_as_xyz
  'x, y, z'

loop_
  _atom_site_label
  _atom_site_occupancy
  _atom_site_fract_x
  _atom_site_fract_y
  _atom_site_fract_z
  _atom_site_thermal_displace_type
  _atom_site_B_iso_or_equiv
  _atom_site_type_symbol
  Zr1      1.0000 0.00032  0.00120  0.49266  Biso   1.000  Zr
  Zr2      1.0000 0.50094  0.00111  0.51025  Biso   1.000  Zr
  Zr3      1.0000 0.25093  0.50140  0.49624  Biso   1.000  Zr
  Hf1      1.0000 0.75078  0.50069  0.50206  Biso   1.000  Hf
  Se1      1.0000 0.99711  0.34050  0.40617  Biso   1.000  Se
  Se2      1.0000 0.24353  0.83104  0.59111  Biso   1.000  Se
  Se3      1.0000 0.00193  0.32984  0.58856  Biso   1.000  Se
  Se4      1.0000 0.25747  0.83752  0.40841  Biso   1.000  Se
  Se5      1.0000 0.50432  0.32739  0.41147  Biso   1.000  Se
  Se6      1.0000 0.75769  0.83265  0.59272  Biso   1.000  Se
  Se7      1.0000 0.50006  0.34319  0.59383  Biso   1.000  Se
  Se8      1.0000 0.74361  0.83065  0.41035  Biso   1.000  Se
