data_image0
_cell_length_a       4.02031
_cell_length_b       4.02207
_cell_length_c       18.8558
_cell_angle_alpha    90
_cell_angle_beta     90
_cell_angle_gamma    119.985

_symmetry_space_group_name_H-M    "P 1"
_symmetry_int_tables_number       1

loop_
  _symmetry_equiv_pos_as_xyz
  'x, y, z'

loop_
  _atom_site_label
  _atom_site_occupancy
  _atom_site_fract_x
  _atom_site_fract_y
  _atom_site_fract_z
  _atom_site_thermal_displace_type
  _atom_site_B_iso_or_equiv
  _atom_site_type_symbol
  Br1      1.0000 0.99991  0.00011  0.35333  Biso   1.000  Br
  Br2      1.0000 0.33342  0.66655  0.64674  Biso   1.000  Br
  Hg1      1.0000 0.99974  0.00046  0.55520  Biso   1.000  Hg
  Hg2      1.0000 0.33359  0.66620  0.44488  Biso   1.000  Hg
