data_image0
_cell_length_a       3.87491
_cell_length_b       3.87661
_cell_length_c       18.8558
_cell_angle_alpha    90
_cell_angle_beta     90
_cell_angle_gamma    119.985

_symmetry_space_group_name_H-M    "P 1"
_symmetry_int_tables_number       1

loop_
  _symmetry_equiv_pos_as_xyz
  'x, y, z'

loop_
  _atom_site_label
  _atom_site_occupancy
  _atom_site_fract_x
  _atom_site_fract_y
  _atom_site_fract_z
  _atom_site_thermal_displace_type
  _atom_site_B_iso_or_equiv
  _atom_site_type_symbol
  Cl1      1.0000 0.99980  0.00027  0.35899  Biso   1.000  Cl
  Cl2      1.0000 0.33353  0.66639  0.64108  Biso   1.000  Cl
  Hg1      1.0000 0.99982  0.00034  0.55579  Biso   1.000  Hg
  Hg2      1.0000 0.33351  0.66632  0.44428  Biso   1.000  Hg
