data_image0
_cell_length_a       3.59819
_cell_length_b       3.60038
_cell_length_c       18.8558
_cell_angle_alpha    90
_cell_angle_beta     90
_cell_angle_gamma    119.98

_symmetry_space_group_name_H-M    "P 1"
_symmetry_int_tables_number       1

loop_
  _symmetry_equiv_pos_as_xyz
  'x, y, z'

loop_
  _atom_site_label
  _atom_site_occupancy
  _atom_site_fract_x
  _atom_site_fract_y
  _atom_site_fract_z
  _atom_site_thermal_displace_type
  _atom_site_B_iso_or_equiv
  _atom_site_type_symbol
  F1       1.0000 0.99977  0.00055  0.38118  Biso   1.000  F
  F2       1.0000 0.33357  0.66611  0.61889  Biso   1.000  F
  Hg1      1.0000 0.99997  0.00017  0.55622  Biso   1.000  Hg
  Hg2      1.0000 0.33337  0.66649  0.44385  Biso   1.000  Hg
