data_image0
_cell_length_a       5.28239
_cell_length_b       3.97003
_cell_length_c       21.3418
_cell_angle_alpha    90
_cell_angle_beta     90
_cell_angle_gamma    90

_symmetry_space_group_name_H-M    "P 1"
_symmetry_int_tables_number       1

loop_
  _symmetry_equiv_pos_as_xyz
  'x, y, z'

loop_
  _atom_site_label
  _atom_site_occupancy
  _atom_site_fract_x
  _atom_site_fract_y
  _atom_site_fract_z
  _atom_site_thermal_displace_type
  _atom_site_B_iso_or_equiv
  _atom_site_type_symbol
  Hg1      1.0000 0.50000  1.00000  0.44399  Biso   1.000  Hg
  Hg2      1.0000 1.00000  0.50000  0.55601  Biso   1.000  Hg
  S1       1.0000 0.50000  0.50000  0.52695  Biso   1.000  S
  S2       1.0000 0.00000  0.00000  0.47305  Biso   1.000  S
  I1       1.0000 0.50000  0.50000  0.34010  Biso   1.000  I
  I2       1.0000 0.00000  0.00000  0.65990  Biso   1.000  I
