data_image0
_cell_length_a       4.00694
_cell_length_b       4.47097
_cell_length_c       21.3418
_cell_angle_alpha    90
_cell_angle_beta     90
_cell_angle_gamma    90

_symmetry_space_group_name_H-M    "P 1"
_symmetry_int_tables_number       1

loop_
  _symmetry_equiv_pos_as_xyz
  'x, y, z'

loop_
  _atom_site_label
  _atom_site_occupancy
  _atom_site_fract_x
  _atom_site_fract_y
  _atom_site_fract_z
  _atom_site_thermal_displace_type
  _atom_site_B_iso_or_equiv
  _atom_site_type_symbol
  Hg1      1.0000 0.50000  0.00000  0.39169  Biso   1.000  Hg
  Hg2      1.0000 0.00000  0.50000  0.60831  Biso   1.000  Hg
  Se1      1.0000 0.50000  0.50000  0.51660  Biso   1.000  Se
  Se2      1.0000 0.00000  0.00000  0.48340  Biso   1.000  Se
  I1       1.0000 0.50000  0.50000  0.30633  Biso   1.000  I
  I2       1.0000 0.00000  0.00000  0.69367  Biso   1.000  I
