data_image0
_cell_length_a       4.45555
_cell_length_b       4.48311
_cell_length_c       18.8558
_cell_angle_alpha    90
_cell_angle_beta     90
_cell_angle_gamma    119.797

_symmetry_space_group_name_H-M    "P 1"
_symmetry_int_tables_number       1

loop_
  _symmetry_equiv_pos_as_xyz
  'x, y, z'

loop_
  _atom_site_label
  _atom_site_occupancy
  _atom_site_fract_x
  _atom_site_fract_y
  _atom_site_fract_z
  _atom_site_thermal_displace_type
  _atom_site_B_iso_or_equiv
  _atom_site_type_symbol
  I1       1.0000 0.83434  0.67149  0.34294  Biso   1.000  I
  I2       1.0000 0.49862  0.99566  0.65713  Biso   1.000  I
  Hg1      1.0000 0.16769  0.32995  0.57121  Biso   1.000  Hg
  Hg2      1.0000 0.16599  0.33621  0.42889  Biso   1.000  Hg
