data_image0
_cell_length_a       3.45877
_cell_length_b       5.99181
_cell_length_c       16.7762
_cell_angle_alpha    90
_cell_angle_beta     90
_cell_angle_gamma    90

_symmetry_space_group_name_H-M    "P 1"
_symmetry_int_tables_number       1

loop_
  _symmetry_equiv_pos_as_xyz
  'x, y, z'

loop_
  _atom_site_label
  _atom_site_occupancy
  _atom_site_fract_x
  _atom_site_fract_y
  _atom_site_fract_z
  _atom_site_thermal_displace_type
  _atom_site_B_iso_or_equiv
  _atom_site_type_symbol
  Hg1      1.0000 0.00000  0.00007  0.49999  Biso   1.000  Hg
  O1       1.0000 0.50000  0.16675  0.56172  Biso   1.000  O
  O2       1.0000 0.00000  0.33323  0.43829  Biso   1.000  O
  Hg2      1.0000 0.50000  0.49993  0.50001  Biso   1.000  Hg
  O3       1.0000 1.00000  0.66678  0.56171  Biso   1.000  O
  O4       1.0000 0.50000  0.83325  0.43830  Biso   1.000  O
