data_image0
_cell_length_a       6.37254
_cell_length_b       6.37418
_cell_length_c       18.4116
_cell_angle_alpha    90
_cell_angle_beta     90
_cell_angle_gamma    119.991

_symmetry_space_group_name_H-M    "P 1"
_symmetry_int_tables_number       1

loop_
  _symmetry_equiv_pos_as_xyz
  'x, y, z'

loop_
  _atom_site_label
  _atom_site_occupancy
  _atom_site_fract_x
  _atom_site_fract_y
  _atom_site_fract_z
  _atom_site_thermal_displace_type
  _atom_site_B_iso_or_equiv
  _atom_site_type_symbol
  Hg1      1.0000 0.00003  0.00003  0.50034  Biso   1.000  Hg
  Hg2      1.0000 0.33332  0.66665  0.49970  Biso   1.000  Hg
  P1       1.0000 0.66662  0.33330  0.43779  Biso   1.000  P
  P2       1.0000 0.66672  0.33338  0.56219  Biso   1.000  P
  S1       1.0000 0.35853  0.02565  0.40585  Biso   1.000  S
  S2       1.0000 0.97421  0.33283  0.40581  Biso   1.000  S
  S3       1.0000 0.66693  0.64123  0.40583  Biso   1.000  S
  S4       1.0000 0.97486  0.64094  0.59415  Biso   1.000  S
  S5       1.0000 0.35921  0.33398  0.59419  Biso   1.000  S
  S6       1.0000 0.66628  0.02540  0.59418  Biso   1.000  S
