data_image0
_cell_length_a       6.68554
_cell_length_b       6.68717
_cell_length_c       18.4116
_cell_angle_alpha    90
_cell_angle_beta     90
_cell_angle_gamma    119.992

_symmetry_space_group_name_H-M    "P 1"
_symmetry_int_tables_number       1

loop_
  _symmetry_equiv_pos_as_xyz
  'x, y, z'

loop_
  _atom_site_label
  _atom_site_occupancy
  _atom_site_fract_x
  _atom_site_fract_y
  _atom_site_fract_z
  _atom_site_thermal_displace_type
  _atom_site_B_iso_or_equiv
  _atom_site_type_symbol
  Hg1      1.0000 0.00004  0.00003  0.50035  Biso   1.000  Hg
  Hg2      1.0000 0.33331  0.66665  0.49967  Biso   1.000  Hg
  P1       1.0000 0.66664  0.33332  0.43713  Biso   1.000  P
  P2       1.0000 0.66670  0.33336  0.56285  Biso   1.000  P
  Se1      1.0000 0.34991  0.01714  0.40166  Biso   1.000  Se
  Se2      1.0000 0.98277  0.33276  0.40163  Biso   1.000  Se
  Se3      1.0000 0.66706  0.64990  0.40165  Biso   1.000  Se
  Se4      1.0000 0.98347  0.64946  0.59834  Biso   1.000  Se
  Se5      1.0000 0.35064  0.33404  0.59837  Biso   1.000  Se
  Se6      1.0000 0.66616  0.01673  0.59836  Biso   1.000  Se
