data_image0
_cell_length_a       4.47752
_cell_length_b       4.47936
_cell_length_c       18.8558
_cell_angle_alpha    90
_cell_angle_beta     90
_cell_angle_gamma    119.986

_symmetry_space_group_name_H-M    "P 1"
_symmetry_int_tables_number       1

loop_
  _symmetry_equiv_pos_as_xyz
  'x, y, z'

loop_
  _atom_site_label
  _atom_site_occupancy
  _atom_site_fract_x
  _atom_site_fract_y
  _atom_site_fract_z
  _atom_site_thermal_displace_type
  _atom_site_B_iso_or_equiv
  _atom_site_type_symbol
  Se1      1.0000 1.00000  0.00011  0.39903  Biso   1.000  Se
  Se2      1.0000 0.33333  0.66655  0.60104  Biso   1.000  Se
  Hg1      1.0000 0.99993  0.00020  0.56906  Biso   1.000  Hg
  Hg2      1.0000 0.33340  0.66647  0.43101  Biso   1.000  Hg
