data_image0
_cell_length_a       4.06988
_cell_length_b       5.65957
_cell_length_c       19.2847
_cell_angle_alpha    90
_cell_angle_beta     90
_cell_angle_gamma    90

_symmetry_space_group_name_H-M    "P 1"
_symmetry_int_tables_number       1

loop_
  _symmetry_equiv_pos_as_xyz
  'x, y, z'

loop_
  _atom_site_label
  _atom_site_occupancy
  _atom_site_fract_x
  _atom_site_fract_y
  _atom_site_fract_z
  _atom_site_thermal_displace_type
  _atom_site_B_iso_or_equiv
  _atom_site_type_symbol
  Hg1      1.0000 0.00000  0.00346  0.49817  Biso   1.000  Hg
  Te1      1.0000 0.50000  0.13335  0.61409  Biso   1.000  Te
  Te2      1.0000 1.00000  0.36665  0.38591  Biso   1.000  Te
  Hg2      1.0000 0.50000  0.49654  0.50183  Biso   1.000  Hg
  Te3      1.0000 1.00000  0.64724  0.61329  Biso   1.000  Te
  Te4      1.0000 0.50000  0.85276  0.38671  Biso   1.000  Te
