data_image0
_cell_length_a       5.05564
_cell_length_b       5.36486
_cell_length_c       18.8558
_cell_angle_alpha    90
_cell_angle_beta     90
_cell_angle_gamma    118.111

_symmetry_space_group_name_H-M    "P 1"
_symmetry_int_tables_number       1

loop_
  _symmetry_equiv_pos_as_xyz
  'x, y, z'

loop_
  _atom_site_label
  _atom_site_occupancy
  _atom_site_fract_x
  _atom_site_fract_y
  _atom_site_fract_z
  _atom_site_thermal_displace_type
  _atom_site_B_iso_or_equiv
  _atom_site_type_symbol
  I1       1.0000 0.01016  0.01067  0.32436  Biso   1.000  I
  I2       1.0000 0.32952  0.64906  0.61766  Biso   1.000  I
  Sb1      1.0000 0.00702  0.00329  0.47162  Biso   1.000  Sb
  Sb2      1.0000 0.33389  0.65654  0.47040  Biso   1.000  Sb
