data_image0
_cell_length_a       5.69685
_cell_length_b       3.91768
_cell_length_c       21.3418
_cell_angle_alpha    90
_cell_angle_beta     90
_cell_angle_gamma    90

_symmetry_space_group_name_H-M    "P 1"
_symmetry_int_tables_number       1

loop_
  _symmetry_equiv_pos_as_xyz
  'x, y, z'

loop_
  _atom_site_label
  _atom_site_occupancy
  _atom_site_fract_x
  _atom_site_fract_y
  _atom_site_fract_z
  _atom_site_thermal_displace_type
  _atom_site_B_iso_or_equiv
  _atom_site_type_symbol
  In1      1.0000 0.50000  0.00000  0.45088  Biso   1.000  In
  In2      1.0000 1.00000  0.50000  0.54912  Biso   1.000  In
  Se1      1.0000 0.50000  0.50000  0.53897  Biso   1.000  Se
  Se2      1.0000 0.00000  0.00000  0.46103  Biso   1.000  Se
  Br1      1.0000 0.50000  0.50000  0.35983  Biso   1.000  Br
  Br2      1.0000 0.00000  0.00000  0.64017  Biso   1.000  Br
