data_image0
_cell_length_a       6.56694
_cell_length_b       6.56857
_cell_length_c       18.4116
_cell_angle_alpha    90
_cell_angle_beta     90
_cell_angle_gamma    119.992

_symmetry_space_group_name_H-M    "P 1"
_symmetry_int_tables_number       1

loop_
  _symmetry_equiv_pos_as_xyz
  'x, y, z'

loop_
  _atom_site_label
  _atom_site_occupancy
  _atom_site_fract_x
  _atom_site_fract_y
  _atom_site_fract_z
  _atom_site_thermal_displace_type
  _atom_site_B_iso_or_equiv
  _atom_site_type_symbol
  In1      1.0000 0.00025  0.00020  0.49960  Biso   1.000  In
  In2      1.0000 0.33319  0.66652  0.50056  Biso   1.000  In
  P1       1.0000 0.66673  0.33341  0.43785  Biso   1.000  P
  P2       1.0000 0.66666  0.33337  0.56205  Biso   1.000  P
  S1       1.0000 0.34300  0.06948  0.40446  Biso   1.000  S
  S2       1.0000 0.93077  0.27377  0.40443  Biso   1.000  S
  S3       1.0000 0.72621  0.65689  0.40445  Biso   1.000  S
  S4       1.0000 0.92939  0.65757  0.59545  Biso   1.000  S
  S5       1.0000 0.34221  0.27160  0.59542  Biso   1.000  S
  S6       1.0000 0.72829  0.07059  0.59534  Biso   1.000  S
