data_image0
_cell_length_a       7.4371
_cell_length_b       7.44008
_cell_length_c       18.4116
_cell_angle_alpha    90
_cell_angle_beta     90
_cell_angle_gamma    119.987

_symmetry_space_group_name_H-M    "P 1"
_symmetry_int_tables_number       1

loop_
  _symmetry_equiv_pos_as_xyz
  'x, y, z'

loop_
  _atom_site_label
  _atom_site_occupancy
  _atom_site_fract_x
  _atom_site_fract_y
  _atom_site_fract_z
  _atom_site_thermal_displace_type
  _atom_site_B_iso_or_equiv
  _atom_site_type_symbol
  In1      1.0000 0.00008  0.00006  0.50040  Biso   1.000  In
  In2      1.0000 0.33326  0.66662  0.49946  Biso   1.000  In
  P1       1.0000 0.66671  0.33337  0.43808  Biso   1.000  P
  P2       1.0000 0.66663  0.33331  0.56191  Biso   1.000  P
  Te1      1.0000 0.34919  0.01724  0.39958  Biso   1.000  Te
  Te2      1.0000 0.98283  0.33178  0.39957  Biso   1.000  Te
  Te3      1.0000 0.66830  0.65097  0.39961  Biso   1.000  Te
  Te4      1.0000 0.98348  0.64963  0.60049  Biso   1.000  Te
  Te5      1.0000 0.35033  0.33405  0.60050  Biso   1.000  Te
  Te6      1.0000 0.66590  0.01637  0.60046  Biso   1.000  Te
