data_image0
_cell_length_a       6.94517
_cell_length_b       6.94701
_cell_length_c       18.4116
_cell_angle_alpha    90
_cell_angle_beta     90
_cell_angle_gamma    119.991

_symmetry_space_group_name_H-M    "P 1"
_symmetry_int_tables_number       1

loop_
  _symmetry_equiv_pos_as_xyz
  'x, y, z'

loop_
  _atom_site_label
  _atom_site_occupancy
  _atom_site_fract_x
  _atom_site_fract_y
  _atom_site_fract_z
  _atom_site_thermal_displace_type
  _atom_site_B_iso_or_equiv
  _atom_site_type_symbol
  In1      1.0000 0.00004  0.99996  0.50022  Biso   1.000  In
  In2      1.0000 0.33331  0.66672  0.49979  Biso   1.000  In
  P1       1.0000 0.66671  0.33336  0.43847  Biso   1.000  P
  P2       1.0000 0.66663  0.33332  0.56152  Biso   1.000  P
  Se1      1.0000 0.35972  0.02783  0.40471  Biso   1.000  Se
  Se2      1.0000 0.97230  0.33188  0.40475  Biso   1.000  Se
  Se3      1.0000 0.66813  0.64029  0.40474  Biso   1.000  Se
  Se4      1.0000 0.97256  0.63988  0.59529  Biso   1.000  Se
  Se5      1.0000 0.36001  0.33271  0.59526  Biso   1.000  Se
  Se6      1.0000 0.66730  0.02745  0.59527  Biso   1.000  Se
