data_image0
_cell_length_a       4.08471
_cell_length_b       4.08471
_cell_length_c       20.3557
_cell_angle_alpha    90
_cell_angle_beta     90
_cell_angle_gamma    120

_symmetry_space_group_name_H-M    "P 1"
_symmetry_int_tables_number       1

loop_
  _symmetry_equiv_pos_as_xyz
  'x, y, z'

loop_
  _atom_site_label
  _atom_site_occupancy
  _atom_site_fract_x
  _atom_site_fract_y
  _atom_site_fract_z
  _atom_site_thermal_displace_type
  _atom_site_B_iso_or_equiv
  _atom_site_type_symbol
  In1      1.0000 0.33341  0.66679  0.56914  Biso   1.000  In
  Se1      1.0000 0.66670  0.33335  0.36845  Biso   1.000  Se
  Se2      1.0000 0.00001  0.00006  0.63155  Biso   1.000  Se
  In2      1.0000 0.33341  0.66685  0.43086  Biso   1.000  In
