data_image0
_cell_length_a       3.82989
_cell_length_b       3.8307
_cell_length_c       18.8558
_cell_angle_alpha    90
_cell_angle_beta     90
_cell_angle_gamma    119.993

_symmetry_space_group_name_H-M    "P 1"
_symmetry_int_tables_number       1

loop_
  _symmetry_equiv_pos_as_xyz
  'x, y, z'

loop_
  _atom_site_label
  _atom_site_occupancy
  _atom_site_fract_x
  _atom_site_fract_y
  _atom_site_fract_z
  _atom_site_thermal_displace_type
  _atom_site_B_iso_or_equiv
  _atom_site_type_symbol
  S1       1.0000 0.00009  0.99960  0.35639  Biso   1.000  S
  S2       1.0000 0.33324  0.66707  0.64368  Biso   1.000  S
  In1      1.0000 0.99989  0.00055  0.57613  Biso   1.000  In
  In2      1.0000 0.33344  0.66612  0.42393  Biso   1.000  In
