data_image0
_cell_length_a       3.91949
_cell_length_b       3.91949
_cell_length_c       20.1674
_cell_angle_alpha    90
_cell_angle_beta     90
_cell_angle_gamma    120

_symmetry_space_group_name_H-M    "P 1"
_symmetry_int_tables_number       1

loop_
  _symmetry_equiv_pos_as_xyz
  'x, y, z'

loop_
  _atom_site_label
  _atom_site_occupancy
  _atom_site_fract_x
  _atom_site_fract_y
  _atom_site_fract_z
  _atom_site_thermal_displace_type
  _atom_site_B_iso_or_equiv
  _atom_site_type_symbol
  In1      1.0000 0.33341  0.66677  0.56986  Biso   1.000  In
  S1       1.0000 0.66670  0.33334  0.37189  Biso   1.000  S
  S2       1.0000 0.00000  0.00006  0.62811  Biso   1.000  S
  In2      1.0000 0.33339  0.66683  0.43014  Biso   1.000  In
