data_image0
_cell_length_a       4.7982
_cell_length_b       5.98459
_cell_length_c       16.3474
_cell_angle_alpha    90
_cell_angle_beta     90
_cell_angle_gamma    90

_symmetry_space_group_name_H-M    "P 1"
_symmetry_int_tables_number       1

loop_
  _symmetry_equiv_pos_as_xyz
  'x, y, z'

loop_
  _atom_site_label
  _atom_site_occupancy
  _atom_site_fract_x
  _atom_site_fract_y
  _atom_site_fract_z
  _atom_site_thermal_displace_type
  _atom_site_B_iso_or_equiv
  _atom_site_type_symbol
  In1      1.0000 0.50000  1.00000  0.50000  Biso   1.000  In
  In2      1.0000 0.00000  0.50000  0.50000  Biso   1.000  In
  S1       1.0000 0.00001  0.08921  0.44142  Biso   1.000  S
  S2       1.0000 0.50164  0.33851  0.58479  Biso   1.000  S
  S3       1.0000 0.99999  0.91079  0.55858  Biso   1.000  S
  S4       1.0000 0.49836  0.66149  0.41521  Biso   1.000  S
