data_image0
_cell_length_a       4.07424
_cell_length_b       4.07424
_cell_length_c       20.3673
_cell_angle_alpha    90
_cell_angle_beta     90
_cell_angle_gamma    120

_symmetry_space_group_name_H-M    "P 1"
_symmetry_int_tables_number       1

loop_
  _symmetry_equiv_pos_as_xyz
  'x, y, z'

loop_
  _atom_site_label
  _atom_site_occupancy
  _atom_site_fract_x
  _atom_site_fract_y
  _atom_site_fract_z
  _atom_site_thermal_displace_type
  _atom_site_B_iso_or_equiv
  _atom_site_type_symbol
  In1      1.0000 0.66667  0.33333  0.43091  Biso   1.000  In
  In2      1.0000 0.66667  0.33333  0.56909  Biso   1.000  In
  Se1      1.0000 0.33333  0.66667  0.36824  Biso   1.000  Se
  Se2      1.0000 0.33333  0.66667  0.63176  Biso   1.000  Se
