data_image0
_cell_length_a       5.14773
_cell_length_b       5.15093
_cell_length_c       18.8558
_cell_angle_alpha    90
_cell_angle_beta     90
_cell_angle_gamma    119.979

_symmetry_space_group_name_H-M    "P 1"
_symmetry_int_tables_number       1

loop_
  _symmetry_equiv_pos_as_xyz
  'x, y, z'

loop_
  _atom_site_label
  _atom_site_occupancy
  _atom_site_fract_x
  _atom_site_fract_y
  _atom_site_fract_z
  _atom_site_thermal_displace_type
  _atom_site_B_iso_or_equiv
  _atom_site_type_symbol
  Te1      1.0000 0.00003  0.00012  0.40504  Biso   1.000  Te
  Te2      1.0000 0.33330  0.66655  0.59503  Biso   1.000  Te
  In1      1.0000 1.00000  0.00018  0.56419  Biso   1.000  In
  In2      1.0000 0.33334  0.66649  0.43588  Biso   1.000  In
