data_image0
_cell_length_a       9.88958
_cell_length_b       8.26374
_cell_length_c       20.7698
_cell_angle_alpha    90
_cell_angle_beta     90
_cell_angle_gamma    126.088

_symmetry_space_group_name_H-M    "P 1"
_symmetry_int_tables_number       1

loop_
  _symmetry_equiv_pos_as_xyz
  'x, y, z'

loop_
  _atom_site_label
  _atom_site_occupancy
  _atom_site_fract_x
  _atom_site_fract_y
  _atom_site_fract_z
  _atom_site_thermal_displace_type
  _atom_site_B_iso_or_equiv
  _atom_site_type_symbol
  In1      1.0000 0.08972  0.98817  0.47096  Biso   1.000  In
  In2      1.0000 0.79205  0.39145  0.52905  Biso   1.000  In
  In3      1.0000 0.29724  0.39657  0.52327  Biso   1.000  In
  In4      1.0000 0.58455  0.98300  0.47675  Biso   1.000  In
  Br1      1.0000 0.33785  0.04108  0.40692  Biso   1.000  Br
  Br2      1.0000 0.54388  0.33851  0.59307  Biso   1.000  Br
  Br3      1.0000 0.88353  0.57928  0.41926  Biso   1.000  Br
  Br4      1.0000 0.99820  0.80024  0.58075  Biso   1.000  Br
  Br5      1.0000 0.97235  0.31959  0.59450  Biso   1.000  Br
  Br6      1.0000 0.90943  0.05998  0.40550  Biso   1.000  Br
  Br7      1.0000 0.45165  0.74071  0.58894  Biso   1.000  Br
  Br8      1.0000 0.43016  0.63887  0.41104  Biso   1.000  Br
