data_image0
_cell_length_a       6.47074
_cell_length_b       6.47074
_cell_length_c       17.7812
_cell_angle_alpha    90
_cell_angle_beta     90
_cell_angle_gamma    120

_symmetry_space_group_name_H-M    "P 1"
_symmetry_int_tables_number       1

loop_
  _symmetry_equiv_pos_as_xyz
  'x, y, z'

loop_
  _atom_site_label
  _atom_site_occupancy
  _atom_site_fract_x
  _atom_site_fract_y
  _atom_site_fract_z
  _atom_site_thermal_displace_type
  _atom_site_B_iso_or_equiv
  _atom_site_type_symbol
  Ir1      1.0000 0.66667  0.33333  0.50000  Biso   1.000  Ir
  Ir2      1.0000 0.33333  0.66667  0.50000  Biso   1.000  Ir
  Br1      1.0000 0.64582  0.00000  0.42177  Biso   1.000  Br
  Br2      1.0000 0.35418  0.35418  0.42177  Biso   1.000  Br
  Br3      1.0000 1.00000  0.64582  0.42177  Biso   1.000  Br
  Br4      1.0000 0.35418  1.00000  0.57823  Biso   1.000  Br
  Br5      1.0000 0.64582  0.64582  0.57823  Biso   1.000  Br
  Br6      1.0000 0.00000  0.35418  0.57823  Biso   1.000  Br
