data_image0
_cell_length_a       3.51212
_cell_length_b       3.51547
_cell_length_c       18.8558
_cell_angle_alpha    90
_cell_angle_beta     90
_cell_angle_gamma    119.968

_symmetry_space_group_name_H-M    "P 1"
_symmetry_int_tables_number       1

loop_
  _symmetry_equiv_pos_as_xyz
  'x, y, z'

loop_
  _atom_site_label
  _atom_site_occupancy
  _atom_site_fract_x
  _atom_site_fract_y
  _atom_site_fract_z
  _atom_site_thermal_displace_type
  _atom_site_B_iso_or_equiv
  _atom_site_type_symbol
  Br1      1.0000 0.99948  0.00066  0.36383  Biso   1.000  Br
  Br2      1.0000 0.33386  0.66601  0.63624  Biso   1.000  Br
  Ir1      1.0000 0.00001  0.00065  0.53935  Biso   1.000  Ir
  Ir2      1.0000 0.33332  0.66601  0.46072  Biso   1.000  Ir
