data_image0
_cell_length_a       4.63381
_cell_length_b       3.61394
_cell_length_c       21.3418
_cell_angle_alpha    90
_cell_angle_beta     90
_cell_angle_gamma    90

_symmetry_space_group_name_H-M    "P 1"
_symmetry_int_tables_number       1

loop_
  _symmetry_equiv_pos_as_xyz
  'x, y, z'

loop_
  _atom_site_label
  _atom_site_occupancy
  _atom_site_fract_x
  _atom_site_fract_y
  _atom_site_fract_z
  _atom_site_thermal_displace_type
  _atom_site_B_iso_or_equiv
  _atom_site_type_symbol
  Ir1      1.0000 0.50000  0.00000  0.45190  Biso   1.000  Ir
  Ir2      1.0000 0.00000  0.50000  0.54810  Biso   1.000  Ir
  S1       1.0000 0.50000  0.50000  0.52187  Biso   1.000  S
  S2       1.0000 0.00000  0.00000  0.47813  Biso   1.000  S
  Br1      1.0000 0.50000  0.50000  0.36644  Biso   1.000  Br
  Br2      1.0000 0.00000  0.00000  0.63356  Biso   1.000  Br
