data_image0
_cell_length_a       2.89007
_cell_length_b       3.69709
_cell_length_c       18.8558
_cell_angle_alpha    90
_cell_angle_beta     90
_cell_angle_gamma    113.008

_symmetry_space_group_name_H-M    "P 1"
_symmetry_int_tables_number       1

loop_
  _symmetry_equiv_pos_as_xyz
  'x, y, z'

loop_
  _atom_site_label
  _atom_site_occupancy
  _atom_site_fract_x
  _atom_site_fract_y
  _atom_site_fract_z
  _atom_site_thermal_displace_type
  _atom_site_B_iso_or_equiv
  _atom_site_type_symbol
  Cl1      1.0000 0.60579  0.21103  0.37662  Biso   1.000  Cl
  Cl2      1.0000 0.72732  0.45506  0.62331  Biso   1.000  Cl
  Ir1      1.0000 0.02225  0.04401  0.54151  Biso   1.000  Ir
  Ir2      1.0000 0.31164  0.62258  0.45842  Biso   1.000  Ir
