data_image0
_cell_length_a       2.8213
_cell_length_b       2.70172
_cell_length_c       18.8558
_cell_angle_alpha    90
_cell_angle_beta     90
_cell_angle_gamma    121.475

_symmetry_space_group_name_H-M    "P 1"
_symmetry_int_tables_number       1

loop_
  _symmetry_equiv_pos_as_xyz
  'x, y, z'

loop_
  _atom_site_label
  _atom_site_occupancy
  _atom_site_fract_x
  _atom_site_fract_y
  _atom_site_fract_z
  _atom_site_thermal_displace_type
  _atom_site_B_iso_or_equiv
  _atom_site_type_symbol
  F1       1.0000 0.91684  0.08320  0.35302  Biso   1.000  F
  F2       1.0000 0.41643  0.58328  0.64705  Biso   1.000  F
  Ir1      1.0000 0.91665  0.08342  0.55854  Biso   1.000  Ir
  Ir2      1.0000 0.41690  0.58336  0.44153  Biso   1.000  Ir
