data_image0
_cell_length_a       3.89563
_cell_length_b       3.36857
_cell_length_c       21.3418
_cell_angle_alpha    90
_cell_angle_beta     90
_cell_angle_gamma    90

_symmetry_space_group_name_H-M    "P 1"
_symmetry_int_tables_number       1

loop_
  _symmetry_equiv_pos_as_xyz
  'x, y, z'

loop_
  _atom_site_label
  _atom_site_occupancy
  _atom_site_fract_x
  _atom_site_fract_y
  _atom_site_fract_z
  _atom_site_thermal_displace_type
  _atom_site_B_iso_or_equiv
  _atom_site_type_symbol
  Ir1      1.0000 0.50000  1.00000  0.45571  Biso   1.000  Ir
  Ir2      1.0000 0.00000  0.50000  0.54429  Biso   1.000  Ir
  N1       1.0000 0.50000  0.50000  0.51288  Biso   1.000  N
  N2       1.0000 0.00000  0.00000  0.48712  Biso   1.000  N
  I1       1.0000 0.50000  0.50000  0.35421  Biso   1.000  I
  I2       1.0000 0.00000  0.00000  0.64579  Biso   1.000  I
