data_image0
_cell_length_a       4.93387
_cell_length_b       2.75755
_cell_length_c       19.3053
_cell_angle_alpha    90
_cell_angle_beta     90
_cell_angle_gamma    90

_symmetry_space_group_name_H-M    "P 1"
_symmetry_int_tables_number       1

loop_
  _symmetry_equiv_pos_as_xyz
  'x, y, z'

loop_
  _atom_site_label
  _atom_site_occupancy
  _atom_site_fract_x
  _atom_site_fract_y
  _atom_site_fract_z
  _atom_site_thermal_displace_type
  _atom_site_B_iso_or_equiv
  _atom_site_type_symbol
  Ir1      1.0000 0.60394  0.25000  0.57052  Biso   1.000  Ir
  Ir2      1.0000 0.10370  0.75000  0.42950  Biso   1.000  Ir
  O1       1.0000 0.20681  0.25000  0.50328  Biso   1.000  O
  O2       1.0000 0.70663  0.75000  0.49669  Biso   1.000  O
  O3       1.0000 0.33941  0.25000  0.38711  Biso   1.000  O
  O4       1.0000 0.37579  0.75000  0.61108  Biso   1.000  O
  O5       1.0000 0.87519  0.25000  0.38908  Biso   1.000  O
  O6       1.0000 0.84003  0.75000  0.61275  Biso   1.000  O
