data_image0
_cell_length_a       6.19163
_cell_length_b       6.19358
_cell_length_c       18.4116
_cell_angle_alpha    90
_cell_angle_beta     90
_cell_angle_gamma    119.99

_symmetry_space_group_name_H-M    "P 1"
_symmetry_int_tables_number       1

loop_
  _symmetry_equiv_pos_as_xyz
  'x, y, z'

loop_
  _atom_site_label
  _atom_site_occupancy
  _atom_site_fract_x
  _atom_site_fract_y
  _atom_site_fract_z
  _atom_site_thermal_displace_type
  _atom_site_B_iso_or_equiv
  _atom_site_type_symbol
  Ir1      1.0000 0.00000  0.00001  0.49997  Biso   1.000  Ir
  Ir2      1.0000 0.33334  0.66667  0.49998  Biso   1.000  Ir
  P1       1.0000 0.66673  0.33338  0.43956  Biso   1.000  P
  P2       1.0000 0.66661  0.33330  0.56064  Biso   1.000  P
  S1       1.0000 0.29145  0.95804  0.42656  Biso   1.000  S
  S2       1.0000 0.04172  0.33330  0.42657  Biso   1.000  S
  S3       1.0000 0.66672  0.70857  0.42656  Biso   1.000  S
  S4       1.0000 0.04227  0.70903  0.57340  Biso   1.000  S
  S5       1.0000 0.29124  0.33336  0.57339  Biso   1.000  S
  S6       1.0000 0.66663  0.95774  0.57340  Biso   1.000  S
