data_image0
_cell_length_a       6.95701
_cell_length_b       6.95822
_cell_length_c       18.4116
_cell_angle_alpha    90
_cell_angle_beta     90
_cell_angle_gamma    119.994

_symmetry_space_group_name_H-M    "P 1"
_symmetry_int_tables_number       1

loop_
  _symmetry_equiv_pos_as_xyz
  'x, y, z'

loop_
  _atom_site_label
  _atom_site_occupancy
  _atom_site_fract_x
  _atom_site_fract_y
  _atom_site_fract_z
  _atom_site_thermal_displace_type
  _atom_site_B_iso_or_equiv
  _atom_site_type_symbol
  Ir1      1.0000 0.00000  0.00002  0.49998  Biso   1.000  Ir
  Ir2      1.0000 0.33334  0.66666  0.49999  Biso   1.000  Ir
  P1       1.0000 0.66668  0.33336  0.43995  Biso   1.000  P
  P2       1.0000 0.66666  0.33332  0.56014  Biso   1.000  P
  Te1      1.0000 0.28139  0.94802  0.41596  Biso   1.000  Te
  Te2      1.0000 0.05187  0.33332  0.41597  Biso   1.000  Te
  Te3      1.0000 0.66667  0.71862  0.41596  Biso   1.000  Te
  Te4      1.0000 0.05205  0.71877  0.58403  Biso   1.000  Te
  Te5      1.0000 0.28135  0.33335  0.58402  Biso   1.000  Te
  Te6      1.0000 0.66669  0.94796  0.58403  Biso   1.000  Te
