data_image0
_cell_length_a       6.5213
_cell_length_b       6.52271
_cell_length_c       18.4116
_cell_angle_alpha    90
_cell_angle_beta     90
_cell_angle_gamma    119.993

_symmetry_space_group_name_H-M    "P 1"
_symmetry_int_tables_number       1

loop_
  _symmetry_equiv_pos_as_xyz
  'x, y, z'

loop_
  _atom_site_label
  _atom_site_occupancy
  _atom_site_fract_x
  _atom_site_fract_y
  _atom_site_fract_z
  _atom_site_thermal_displace_type
  _atom_site_B_iso_or_equiv
  _atom_site_type_symbol
  Ir1      1.0000 0.00000  0.00001  0.50000  Biso   1.000  Ir
  Ir2      1.0000 0.33334  0.66667  0.49998  Biso   1.000  Ir
  P1       1.0000 0.66670  0.33336  0.43981  Biso   1.000  P
  P2       1.0000 0.66664  0.33332  0.56029  Biso   1.000  P
  Se1      1.0000 0.28746  0.95411  0.42212  Biso   1.000  Se
  Se2      1.0000 0.04579  0.33328  0.42213  Biso   1.000  Se
  Se3      1.0000 0.66673  0.71255  0.42212  Biso   1.000  Se
  Se4      1.0000 0.04604  0.71272  0.57786  Biso   1.000  Se
  Se5      1.0000 0.28740  0.33341  0.57786  Biso   1.000  Se
  Se6      1.0000 0.66661  0.95398  0.57786  Biso   1.000  Se
