data_image0
_cell_length_a       3.73236
_cell_length_b       6.1184
_cell_length_c       17.6176
_cell_angle_alpha    90
_cell_angle_beta     90
_cell_angle_gamma    90

_symmetry_space_group_name_H-M    "P 1"
_symmetry_int_tables_number       1

loop_
  _symmetry_equiv_pos_as_xyz
  'x, y, z'

loop_
  _atom_site_label
  _atom_site_occupancy
  _atom_site_fract_x
  _atom_site_fract_y
  _atom_site_fract_z
  _atom_site_thermal_displace_type
  _atom_site_B_iso_or_equiv
  _atom_site_type_symbol
  Ir1      1.0000 0.00000  0.02127  0.50577  Biso   1.000  Ir
  Se1      1.0000 0.50000  0.16568  0.58599  Biso   1.000  Se
  Se2      1.0000 0.00000  0.33432  0.41401  Biso   1.000  Se
  Ir2      1.0000 0.50000  0.47873  0.49423  Biso   1.000  Ir
  Se3      1.0000 0.00000  0.65332  0.56854  Biso   1.000  Se
  Se4      1.0000 0.50000  0.84668  0.43146  Biso   1.000  Se
