data_image0
_cell_length_a       3.40812
_cell_length_b       3.41664
_cell_length_c       18.8558
_cell_angle_alpha    90
_cell_angle_beta     90
_cell_angle_gamma    119.918

_symmetry_space_group_name_H-M    "P 1"
_symmetry_int_tables_number       1

loop_
  _symmetry_equiv_pos_as_xyz
  'x, y, z'

loop_
  _atom_site_label
  _atom_site_occupancy
  _atom_site_fract_x
  _atom_site_fract_y
  _atom_site_fract_z
  _atom_site_thermal_displace_type
  _atom_site_B_iso_or_equiv
  _atom_site_type_symbol
  Se1      1.0000 0.00011  0.00014  0.37344  Biso   1.000  Se
  Se2      1.0000 0.33323  0.66653  0.62666  Biso   1.000  Se
  Ir1      1.0000 0.00041  0.00093  0.55324  Biso   1.000  Ir
  Ir2      1.0000 0.33293  0.66574  0.44686  Biso   1.000  Ir
