data_image0
_cell_length_a       3.27931
_cell_length_b       3.27986
_cell_length_c       18.8558
_cell_angle_alpha    90
_cell_angle_beta     90
_cell_angle_gamma    119.994

_symmetry_space_group_name_H-M    "P 1"
_symmetry_int_tables_number       1

loop_
  _symmetry_equiv_pos_as_xyz
  'x, y, z'

loop_
  _atom_site_label
  _atom_site_occupancy
  _atom_site_fract_x
  _atom_site_fract_y
  _atom_site_fract_z
  _atom_site_thermal_displace_type
  _atom_site_B_iso_or_equiv
  _atom_site_type_symbol
  S1       1.0000 0.00001  0.99997  0.37672  Biso   1.000  S
  S2       1.0000 0.33332  0.66669  0.62335  Biso   1.000  S
  Ir1      1.0000 0.00001  0.00010  0.55691  Biso   1.000  Ir
  Ir2      1.0000 0.33332  0.66657  0.44316  Biso   1.000  Ir
