data_image0
_cell_length_a       5.77251
_cell_length_b       3.59738
_cell_length_c       20.6655
_cell_angle_alpha    90
_cell_angle_beta     90
_cell_angle_gamma    90

_symmetry_space_group_name_H-M    "P 1"
_symmetry_int_tables_number       1

loop_
  _symmetry_equiv_pos_as_xyz
  'x, y, z'

loop_
  _atom_site_label
  _atom_site_occupancy
  _atom_site_fract_x
  _atom_site_fract_y
  _atom_site_fract_z
  _atom_site_thermal_displace_type
  _atom_site_B_iso_or_equiv
  _atom_site_type_symbol
  Ir1      1.0000 0.55172  0.18084  0.55209  Biso   1.000  Ir
  Ir2      1.0000 0.05178  0.68083  0.44815  Biso   1.000  Ir
  S1       1.0000 0.18729  0.18017  0.50914  Biso   1.000  S
  S2       1.0000 0.68687  0.68018  0.49093  Biso   1.000  S
  S3       1.0000 0.29984  0.45433  0.36293  Biso   1.000  S
  S4       1.0000 0.48774  0.68481  0.62761  Biso   1.000  S
  S5       1.0000 0.98734  0.18486  0.37258  Biso   1.000  S
  S6       1.0000 0.80038  0.95439  0.63708  Biso   1.000  S
