data_image0
_cell_length_a       3.38631
_cell_length_b       3.38629
_cell_length_c       20.8073
_cell_angle_alpha    90
_cell_angle_beta     90
_cell_angle_gamma    120

_symmetry_space_group_name_H-M    "P 1"
_symmetry_int_tables_number       1

loop_
  _symmetry_equiv_pos_as_xyz
  'x, y, z'

loop_
  _atom_site_label
  _atom_site_occupancy
  _atom_site_fract_x
  _atom_site_fract_y
  _atom_site_fract_z
  _atom_site_thermal_displace_type
  _atom_site_B_iso_or_equiv
  _atom_site_type_symbol
  Ir1      1.0000 0.33334  0.66666  0.56304  Biso   1.000  Ir
  Se1      1.0000 0.66667  0.33332  0.37147  Biso   1.000  Se
  Se2      1.0000 1.00000  0.00001  0.62853  Biso   1.000  Se
  Ir2      1.0000 0.33332  0.66667  0.43696  Biso   1.000  Ir
