data_image0
_cell_length_a       4.05905
_cell_length_b       4.05905
_cell_length_c       19.4364
_cell_angle_alpha    90
_cell_angle_beta     90
_cell_angle_gamma    120

_symmetry_space_group_name_H-M    "P 1"
_symmetry_int_tables_number       1

loop_
  _symmetry_equiv_pos_as_xyz
  'x, y, z'

loop_
  _atom_site_label
  _atom_site_occupancy
  _atom_site_fract_x
  _atom_site_fract_y
  _atom_site_fract_z
  _atom_site_thermal_displace_type
  _atom_site_B_iso_or_equiv
  _atom_site_type_symbol
  Ir1      1.0000 0.33333  0.66683  0.56215  Biso   1.000  Ir
  Te1      1.0000 0.66709  0.33390  0.38587  Biso   1.000  Te
  Te2      1.0000 0.99996  0.00018  0.61413  Biso   1.000  Te
  Ir2      1.0000 0.33368  0.66719  0.43785  Biso   1.000  Ir
