data_image0
_cell_length_a       6.42685
_cell_length_b       6.53998
_cell_length_c       16.5962
_cell_angle_alpha    90
_cell_angle_beta     90
_cell_angle_gamma    90

_symmetry_space_group_name_H-M    "P 1"
_symmetry_int_tables_number       1

loop_
  _symmetry_equiv_pos_as_xyz
  'x, y, z'

loop_
  _atom_site_label
  _atom_site_occupancy
  _atom_site_fract_x
  _atom_site_fract_y
  _atom_site_fract_z
  _atom_site_thermal_displace_type
  _atom_site_B_iso_or_equiv
  _atom_site_type_symbol
  Ir1      1.0000 0.50000  1.00000  0.50000  Biso   1.000  Ir
  Ir2      1.0000 0.00000  0.50000  0.50000  Biso   1.000  Ir
  Te1      1.0000 0.13825  0.14420  0.46557  Biso   1.000  Te
  Te2      1.0000 0.63825  0.35580  0.53443  Biso   1.000  Te
  Te3      1.0000 0.86175  0.85580  0.53443  Biso   1.000  Te
  Te4      1.0000 0.36175  0.64420  0.46557  Biso   1.000  Te
