data_image0
_cell_length_a       3.93436
_cell_length_b       3.95821
_cell_length_c       17.7776
_cell_angle_alpha    90
_cell_angle_beta     90
_cell_angle_gamma    90

_symmetry_space_group_name_H-M    "P 1"
_symmetry_int_tables_number       1

loop_
  _symmetry_equiv_pos_as_xyz
  'x, y, z'

loop_
  _atom_site_label
  _atom_site_occupancy
  _atom_site_fract_x
  _atom_site_fract_y
  _atom_site_fract_z
  _atom_site_thermal_displace_type
  _atom_site_B_iso_or_equiv
  _atom_site_type_symbol
  Ir1      1.0000 0.00000  0.99842  0.49694  Biso   1.000  Ir
  Te1      1.0000 0.00000  0.51274  0.59699  Biso   1.000  Te
  Ir2      1.0000 0.50000  0.47444  0.49675  Biso   1.000  Ir
  Te2      1.0000 0.00000  0.51334  0.39671  Biso   1.000  Te
