data_image0
_cell_length_a       3.9085
_cell_length_b       6.62154
_cell_length_c       17.8652
_cell_angle_alpha    90
_cell_angle_beta     90
_cell_angle_gamma    90

_symmetry_space_group_name_H-M    "P 1"
_symmetry_int_tables_number       1

loop_
  _symmetry_equiv_pos_as_xyz
  'x, y, z'

loop_
  _atom_site_label
  _atom_site_occupancy
  _atom_site_fract_x
  _atom_site_fract_y
  _atom_site_fract_z
  _atom_site_thermal_displace_type
  _atom_site_B_iso_or_equiv
  _atom_site_type_symbol
  Ir1      1.0000 0.00000  0.01425  0.50265  Biso   1.000  Ir
  Te1      1.0000 0.50000  0.16627  0.58769  Biso   1.000  Te
  Te2      1.0000 0.00000  0.33373  0.41231  Biso   1.000  Te
  Ir2      1.0000 0.50000  0.48575  0.49735  Biso   1.000  Ir
  Te3      1.0000 0.00000  0.66066  0.57587  Biso   1.000  Te
  Te4      1.0000 0.50000  0.83934  0.42413  Biso   1.000  Te
