data_image0
_cell_length_a       6.17848
_cell_length_b       3.77005
_cell_length_c       21.3019
_cell_angle_alpha    90
_cell_angle_beta     90
_cell_angle_gamma    90

_symmetry_space_group_name_H-M    "P 1"
_symmetry_int_tables_number       1

loop_
  _symmetry_equiv_pos_as_xyz
  'x, y, z'

loop_
  _atom_site_label
  _atom_site_occupancy
  _atom_site_fract_x
  _atom_site_fract_y
  _atom_site_fract_z
  _atom_site_thermal_displace_type
  _atom_site_B_iso_or_equiv
  _atom_site_type_symbol
  Ir1      1.0000 0.48977  0.25000  0.57988  Biso   1.000  Ir
  Ir2      1.0000 0.27333  0.75000  0.42013  Biso   1.000  Ir
  Te1      1.0000 0.15092  0.25000  0.50130  Biso   1.000  Te
  Te2      1.0000 0.61223  0.75000  0.49871  Biso   1.000  Te
  Te3      1.0000 0.48896  0.25000  0.34913  Biso   1.000  Te
  Te4      1.0000 0.27419  0.75000  0.65084  Biso   1.000  Te
  Te5      1.0000 0.02165  0.25000  0.35226  Biso   1.000  Te
  Te6      1.0000 0.74173  0.75000  0.64769  Biso   1.000  Te
