data_image0
_cell_length_a       6.692
_cell_length_b       7.44506
_cell_length_c       17.9164
_cell_angle_alpha    90
_cell_angle_beta     90
_cell_angle_gamma    116.257

_symmetry_space_group_name_H-M    "P 1"
_symmetry_int_tables_number       1

loop_
  _symmetry_equiv_pos_as_xyz
  'x, y, z'

loop_
  _atom_site_label
  _atom_site_occupancy
  _atom_site_fract_x
  _atom_site_fract_y
  _atom_site_fract_z
  _atom_site_thermal_displace_type
  _atom_site_B_iso_or_equiv
  _atom_site_type_symbol
  Ir1      1.0000 0.98451  0.95263  0.49725  Biso   1.000  Ir
  Ir2      1.0000 0.89727  0.42695  0.50275  Biso   1.000  Ir
  Ir3      1.0000 0.48456  0.45271  0.49728  Biso   1.000  Ir
  Ir4      1.0000 0.39722  0.92686  0.50272  Biso   1.000  Ir
  Se1      1.0000 0.30885  0.14394  0.41772  Biso   1.000  Se
  Se2      1.0000 0.57293  0.23564  0.58228  Biso   1.000  Se
  Se3      1.0000 0.80881  0.64399  0.41771  Biso   1.000  Se
  Se4      1.0000 0.07297  0.73558  0.58229  Biso   1.000  Se
  Se5      1.0000 0.12142  0.27857  0.57058  Biso   1.000  Se
  Se6      1.0000 0.76036  0.10101  0.42942  Biso   1.000  Se
  Se7      1.0000 0.62138  0.77857  0.57058  Biso   1.000  Se
  Se8      1.0000 0.26040  0.60101  0.42942  Biso   1.000  Se
