data_image0
_cell_length_a       6.44448
_cell_length_b       7.11731
_cell_length_c       17.759
_cell_angle_alpha    90
_cell_angle_beta     90
_cell_angle_gamma    116.465

_symmetry_space_group_name_H-M    "P 1"
_symmetry_int_tables_number       1

loop_
  _symmetry_equiv_pos_as_xyz
  'x, y, z'

loop_
  _atom_site_label
  _atom_site_occupancy
  _atom_site_fract_x
  _atom_site_fract_y
  _atom_site_fract_z
  _atom_site_thermal_displace_type
  _atom_site_B_iso_or_equiv
  _atom_site_type_symbol
  Ir1      1.0000 0.98135  0.95236  0.49697  Biso   1.000  Ir
  Ir2      1.0000 0.90042  0.42722  0.50303  Biso   1.000  Ir
  Ir3      1.0000 0.48135  0.45232  0.49696  Biso   1.000  Ir
  Ir4      1.0000 0.40042  0.92726  0.50304  Biso   1.000  Ir
  S1       1.0000 0.30706  0.14087  0.42246  Biso   1.000  S
  S2       1.0000 0.57471  0.23871  0.57754  Biso   1.000  S
  S3       1.0000 0.80707  0.64093  0.42247  Biso   1.000  S
  S4       1.0000 0.07470  0.73865  0.57754  Biso   1.000  S
  S5       1.0000 0.12075  0.27814  0.56642  Biso   1.000  S
  S6       1.0000 0.76102  0.10144  0.43358  Biso   1.000  S
  S7       1.0000 0.62073  0.77814  0.56638  Biso   1.000  S
  S8       1.0000 0.26105  0.60144  0.43362  Biso   1.000  S
