data_image0
_cell_length_a       3.40374
_cell_length_b       5.64066
_cell_length_c       19.8366
_cell_angle_alpha    90
_cell_angle_beta     90
_cell_angle_gamma    90

_symmetry_space_group_name_H-M    "P 1"
_symmetry_int_tables_number       1

loop_
  _symmetry_equiv_pos_as_xyz
  'x, y, z'

loop_
  _atom_site_label
  _atom_site_occupancy
  _atom_site_fract_x
  _atom_site_fract_y
  _atom_site_fract_z
  _atom_site_thermal_displace_type
  _atom_site_B_iso_or_equiv
  _atom_site_type_symbol
  K1       1.0000 0.00000  1.00000  0.51167  Biso   1.000  K
  I1       1.0000 1.00000  0.50000  0.61140  Biso   1.000  I
  I2       1.0000 0.50000  1.00000  0.36662  Biso   1.000  I
