data_image0
_cell_length_a       3.528
_cell_length_b       3.52647
_cell_length_c       18.8558
_cell_angle_alpha    90
_cell_angle_beta     90
_cell_angle_gamma    120.014

_symmetry_space_group_name_H-M    "P 1"
_symmetry_int_tables_number       1

loop_
  _symmetry_equiv_pos_as_xyz
  'x, y, z'

loop_
  _atom_site_label
  _atom_site_occupancy
  _atom_site_fract_x
  _atom_site_fract_y
  _atom_site_fract_z
  _atom_site_thermal_displace_type
  _atom_site_B_iso_or_equiv
  _atom_site_type_symbol
  Br1      1.0000 0.00006  0.00005  0.36537  Biso   1.000  Br
  Br2      1.0000 0.33327  0.66662  0.63470  Biso   1.000  Br
  Mn1      1.0000 0.00052  0.00042  0.54493  Biso   1.000  Mn
  Mn2      1.0000 0.33282  0.66624  0.45514  Biso   1.000  Mn
