data_image0
_cell_length_a       3.87054
_cell_length_b       3.32694
_cell_length_c       21.3418
_cell_angle_alpha    90
_cell_angle_beta     90
_cell_angle_gamma    90

_symmetry_space_group_name_H-M    "P 1"
_symmetry_int_tables_number       1

loop_
  _symmetry_equiv_pos_as_xyz
  'x, y, z'

loop_
  _atom_site_label
  _atom_site_occupancy
  _atom_site_fract_x
  _atom_site_fract_y
  _atom_site_fract_z
  _atom_site_thermal_displace_type
  _atom_site_B_iso_or_equiv
  _atom_site_type_symbol
  Mn1      1.0000 0.50000  0.00000  0.46057  Biso   1.000  Mn
  Mn2      1.0000 0.00000  0.50000  0.53943  Biso   1.000  Mn
  O1       1.0000 0.50000  0.50000  0.52009  Biso   1.000  O
  O2       1.0000 0.00000  0.00000  0.47991  Biso   1.000  O
  Cl1      1.0000 0.50000  0.50000  0.38020  Biso   1.000  Cl
  Cl2      1.0000 0.00000  0.00000  0.61980  Biso   1.000  Cl
