data_image0
_cell_length_a       3.56955
_cell_length_b       6.20539
_cell_length_c       17.7149
_cell_angle_alpha    90
_cell_angle_beta     90
_cell_angle_gamma    90

_symmetry_space_group_name_H-M    "P 1"
_symmetry_int_tables_number       1

loop_
  _symmetry_equiv_pos_as_xyz
  'x, y, z'

loop_
  _atom_site_label
  _atom_site_occupancy
  _atom_site_fract_x
  _atom_site_fract_y
  _atom_site_fract_z
  _atom_site_thermal_displace_type
  _atom_site_B_iso_or_equiv
  _atom_site_type_symbol
  Mn1      1.0000 0.00000  0.00002  0.49999  Biso   1.000  Mn
  Cl1      1.0000 0.50000  0.18512  0.57738  Biso   1.000  Cl
  Cl2      1.0000 0.00000  0.34872  0.42576  Biso   1.000  Cl
  Mn2      1.0000 0.50000  0.49989  0.49999  Biso   1.000  Mn
  Cl3      1.0000 1.00000  0.65131  0.57421  Biso   1.000  Cl
  Cl4      1.0000 0.50000  0.81494  0.42267  Biso   1.000  Cl
