data_image0
_cell_length_a       7.55646
_cell_length_b       7.55646
_cell_length_c       18.2889
_cell_angle_alpha    90
_cell_angle_beta     90
_cell_angle_gamma    120

_symmetry_space_group_name_H-M    "P 1"
_symmetry_int_tables_number       1

loop_
  _symmetry_equiv_pos_as_xyz
  'x, y, z'

loop_
  _atom_site_label
  _atom_site_occupancy
  _atom_site_fract_x
  _atom_site_fract_y
  _atom_site_fract_z
  _atom_site_thermal_displace_type
  _atom_site_B_iso_or_equiv
  _atom_site_type_symbol
  Mn1      1.0000 0.66667  0.33333  0.49999  Biso   1.000  Mn
  Mn2      1.0000 0.33333  0.66667  0.50001  Biso   1.000  Mn
  I1       1.0000 0.47944  0.00002  0.40315  Biso   1.000  I
  I2       1.0000 0.52058  0.52056  0.40315  Biso   1.000  I
  I3       1.0000 0.99998  0.47942  0.40315  Biso   1.000  I
  I4       1.0000 0.47942  0.99998  0.59685  Biso   1.000  I
  I5       1.0000 0.52056  0.52058  0.59685  Biso   1.000  I
  I6       1.0000 0.00002  0.47944  0.59685  Biso   1.000  I
