data_image0
_cell_length_a       2.81592
_cell_length_b       4.63602
_cell_length_c       16.9202
_cell_angle_alpha    90
_cell_angle_beta     90
_cell_angle_gamma    90

_symmetry_space_group_name_H-M    "P 1"
_symmetry_int_tables_number       1

loop_
  _symmetry_equiv_pos_as_xyz
  'x, y, z'

loop_
  _atom_site_label
  _atom_site_occupancy
  _atom_site_fract_x
  _atom_site_fract_y
  _atom_site_fract_z
  _atom_site_thermal_displace_type
  _atom_site_B_iso_or_equiv
  _atom_site_type_symbol
  Mn1      1.0000 0.00000  0.03342  0.50124  Biso   1.000  Mn
  O1       1.0000 0.50000  0.16036  0.56988  Biso   1.000  O
  O2       1.0000 0.00000  0.33964  0.43012  Biso   1.000  O
  Mn2      1.0000 0.50000  0.46658  0.49876  Biso   1.000  Mn
  O3       1.0000 1.00000  0.65683  0.55276  Biso   1.000  O
  O4       1.0000 0.50000  0.84317  0.44724  Biso   1.000  O
