data_image0
_cell_length_a       2.84255
_cell_length_b       4.86268
_cell_length_c       17.0409
_cell_angle_alpha    90
_cell_angle_beta     90
_cell_angle_gamma    90

_symmetry_space_group_name_H-M    "P 1"
_symmetry_int_tables_number       1

loop_
  _symmetry_equiv_pos_as_xyz
  'x, y, z'

loop_
  _atom_site_label
  _atom_site_occupancy
  _atom_site_fract_x
  _atom_site_fract_y
  _atom_site_fract_z
  _atom_site_thermal_displace_type
  _atom_site_B_iso_or_equiv
  _atom_site_type_symbol
  Mn1      1.0000 1.00000  0.99999  0.49880  Biso   1.000  Mn
  O1       1.0000 1.00000  0.32897  0.55581  Biso   1.000  O
  Mn2      1.0000 0.50000  0.49941  0.49906  Biso   1.000  Mn
  O2       1.0000 1.00000  0.66996  0.44232  Biso   1.000  O
