data_image0
_cell_length_a       6.17943
_cell_length_b       6.41299
_cell_length_c       18.1862
_cell_angle_alpha    90
_cell_angle_beta     90
_cell_angle_gamma    118.802

_symmetry_space_group_name_H-M    "P 1"
_symmetry_int_tables_number       1

loop_
  _symmetry_equiv_pos_as_xyz
  'x, y, z'

loop_
  _atom_site_label
  _atom_site_occupancy
  _atom_site_fract_x
  _atom_site_fract_y
  _atom_site_fract_z
  _atom_site_thermal_displace_type
  _atom_site_B_iso_or_equiv
  _atom_site_type_symbol
  Mn1      1.0000 0.99803  0.99542  0.49986  Biso   1.000  Mn
  Mn2      1.0000 0.33530  0.67126  0.50005  Biso   1.000  Mn
  P1       1.0000 0.66425  0.33359  0.43824  Biso   1.000  P
  P2       1.0000 0.66912  0.33309  0.56204  Biso   1.000  P
  Se1      1.0000 0.29282  0.95329  0.41884  Biso   1.000  Se
  Se2      1.0000 0.03550  0.33331  0.41966  Biso   1.000  Se
  Se3      1.0000 0.67271  0.71405  0.41896  Biso   1.000  Se
  Se4      1.0000 0.04094  0.71390  0.58112  Biso   1.000  Se
  Se5      1.0000 0.29748  0.33337  0.58025  Biso   1.000  Se
  Se6      1.0000 0.66054  0.95212  0.58099  Biso   1.000  Se
