data_image0
_cell_length_a       6.64446
_cell_length_b       6.8996
_cell_length_c       18.1298
_cell_angle_alpha    90
_cell_angle_beta     90
_cell_angle_gamma    118.784

_symmetry_space_group_name_H-M    "P 1"
_symmetry_int_tables_number       1

loop_
  _symmetry_equiv_pos_as_xyz
  'x, y, z'

loop_
  _atom_site_label
  _atom_site_occupancy
  _atom_site_fract_x
  _atom_site_fract_y
  _atom_site_fract_z
  _atom_site_thermal_displace_type
  _atom_site_B_iso_or_equiv
  _atom_site_type_symbol
  Mn1      1.0000 0.99880  0.99710  0.49997  Biso   1.000  Mn
  Mn2      1.0000 0.33454  0.66958  0.50002  Biso   1.000  Mn
  P1       1.0000 0.66027  0.33351  0.43897  Biso   1.000  P
  P2       1.0000 0.67307  0.33317  0.56106  Biso   1.000  P
  Te1      1.0000 0.28264  0.94104  0.41125  Biso   1.000  Te
  Te2      1.0000 0.03984  0.33331  0.41437  Biso   1.000  Te
  Te3      1.0000 0.67475  0.72656  0.41126  Biso   1.000  Te
  Te4      1.0000 0.05074  0.72568  0.58875  Biso   1.000  Te
  Te5      1.0000 0.29347  0.33337  0.58563  Biso   1.000  Te
  Te6      1.0000 0.65859  0.94008  0.58874  Biso   1.000  Te
