data_image0
_cell_length_a       5.9122
_cell_length_b       5.91911
_cell_length_c       18.0519
_cell_angle_alpha    90
_cell_angle_beta     90
_cell_angle_gamma    119.961

_symmetry_space_group_name_H-M    "P 1"
_symmetry_int_tables_number       1

loop_
  _symmetry_equiv_pos_as_xyz
  'x, y, z'

loop_
  _atom_site_label
  _atom_site_occupancy
  _atom_site_fract_x
  _atom_site_fract_y
  _atom_site_fract_z
  _atom_site_thermal_displace_type
  _atom_site_B_iso_or_equiv
  _atom_site_type_symbol
  Mn1      1.0000 0.99982  0.99919  0.50000  Biso   1.000  Mn
  Mn2      1.0000 0.33352  0.66722  0.50002  Biso   1.000  Mn
  P1       1.0000 0.66688  0.33339  0.43945  Biso   1.000  P
  P2       1.0000 0.66640  0.33327  0.56054  Biso   1.000  P
  S1       1.0000 0.33368  0.97944  0.41628  Biso   1.000  S
  S2       1.0000 0.02126  0.35408  0.41646  Biso   1.000  S
  S3       1.0000 0.64604  0.66683  0.41634  Biso   1.000  S
  S4       1.0000 0.02050  0.66658  0.58374  Biso   1.000  S
  S5       1.0000 0.33280  0.35409  0.58357  Biso   1.000  S
  S6       1.0000 0.64590  0.97937  0.58371  Biso   1.000  S
