data_image0
_cell_length_a       6.63135
_cell_length_b       6.99768
_cell_length_c       18.1298
_cell_angle_alpha    90
_cell_angle_beta     90
_cell_angle_gamma    118.283

_symmetry_space_group_name_H-M    "P 1"
_symmetry_int_tables_number       1

loop_
  _symmetry_equiv_pos_as_xyz
  'x, y, z'

loop_
  _atom_site_label
  _atom_site_occupancy
  _atom_site_fract_x
  _atom_site_fract_y
  _atom_site_fract_z
  _atom_site_thermal_displace_type
  _atom_site_B_iso_or_equiv
  _atom_site_type_symbol
  Mn1      1.0000 0.99850  0.99733  0.50001  Biso   1.000  Mn
  Mn2      1.0000 0.33484  0.66935  0.50000  Biso   1.000  Mn
  P1       1.0000 0.65809  0.33346  0.43888  Biso   1.000  P
  P2       1.0000 0.67526  0.33322  0.56113  Biso   1.000  P
  Te1      1.0000 0.28248  0.93755  0.41080  Biso   1.000  Te
  Te2      1.0000 0.03888  0.33333  0.41544  Biso   1.000  Te
  Te3      1.0000 0.67830  0.72992  0.41063  Biso   1.000  Te
  Te4      1.0000 0.05086  0.72913  0.58921  Biso   1.000  Te
  Te5      1.0000 0.29446  0.33335  0.58456  Biso   1.000  Te
  Te6      1.0000 0.65504  0.93675  0.58938  Biso   1.000  Te
