data_image0
_cell_length_a       6.3897
_cell_length_b       6.3931
_cell_length_c       18.1862
_cell_angle_alpha    90
_cell_angle_beta     90
_cell_angle_gamma    119.982

_symmetry_space_group_name_H-M    "P 1"
_symmetry_int_tables_number       1

loop_
  _symmetry_equiv_pos_as_xyz
  'x, y, z'

loop_
  _atom_site_label
  _atom_site_occupancy
  _atom_site_fract_x
  _atom_site_fract_y
  _atom_site_fract_z
  _atom_site_thermal_displace_type
  _atom_site_B_iso_or_equiv
  _atom_site_type_symbol
  Mn1      1.0000 0.99922  0.99904  0.50000  Biso   1.000  Mn
  Mn2      1.0000 0.33391  0.66761  0.50013  Biso   1.000  Mn
  P1       1.0000 0.66704  0.33324  0.43835  Biso   1.000  P
  P2       1.0000 0.66643  0.33345  0.56150  Biso   1.000  P
  Se1      1.0000 0.33126  0.99754  0.40682  Biso   1.000  Se
  Se2      1.0000 0.00313  0.33335  0.40714  Biso   1.000  Se
  Se3      1.0000 0.66678  0.66884  0.40673  Biso   1.000  Se
  Se4      1.0000 0.00198  0.66914  0.59316  Biso   1.000  Se
  Se5      1.0000 0.33044  0.33334  0.59296  Biso   1.000  Se
  Se6      1.0000 0.66651  0.99786  0.59322  Biso   1.000  Se
