data_image0
_cell_length_a       3.5109
_cell_length_b       3.51138
_cell_length_c       18.5309
_cell_angle_alpha    90
_cell_angle_beta     90
_cell_angle_gamma    119.995

_symmetry_space_group_name_H-M    "P 1"
_symmetry_int_tables_number       1

loop_
  _symmetry_equiv_pos_as_xyz
  'x, y, z'

loop_
  _atom_site_label
  _atom_site_occupancy
  _atom_site_fract_x
  _atom_site_fract_y
  _atom_site_fract_z
  _atom_site_thermal_displace_type
  _atom_site_B_iso_or_equiv
  _atom_site_type_symbol
  Mn1      1.0000 0.33327  0.66663  0.55370  Biso   1.000  Mn
  S1       1.0000 0.66674  0.33333  0.40348  Biso   1.000  S
  S2       1.0000 0.99995  0.00004  0.59651  Biso   1.000  S
  Mn2      1.0000 0.33342  0.66675  0.44629  Biso   1.000  Mn
