data_image0
_cell_length_a       3.93274
_cell_length_b       3.93336
_cell_length_c       18.8558
_cell_angle_alpha    90
_cell_angle_beta     90
_cell_angle_gamma    119.995

_symmetry_space_group_name_H-M    "P 1"
_symmetry_int_tables_number       1

loop_
  _symmetry_equiv_pos_as_xyz
  'x, y, z'

loop_
  _atom_site_label
  _atom_site_occupancy
  _atom_site_fract_x
  _atom_site_fract_y
  _atom_site_fract_z
  _atom_site_thermal_displace_type
  _atom_site_B_iso_or_equiv
  _atom_site_type_symbol
  S1       1.0000 1.00000  0.00004  0.41917  Biso   1.000  S
  S2       1.0000 0.33333  0.66663  0.58090  Biso   1.000  S
  Mn1      1.0000 1.00000  0.00005  0.54142  Biso   1.000  Mn
  Mn2      1.0000 0.33334  0.66661  0.45865  Biso   1.000  Mn
