data_image0
_cell_length_a       3.28114
_cell_length_b       5.56499
_cell_length_c       17.6476
_cell_angle_alpha    90
_cell_angle_beta     90
_cell_angle_gamma    90

_symmetry_space_group_name_H-M    "P 1"
_symmetry_int_tables_number       1

loop_
  _symmetry_equiv_pos_as_xyz
  'x, y, z'

loop_
  _atom_site_label
  _atom_site_occupancy
  _atom_site_fract_x
  _atom_site_fract_y
  _atom_site_fract_z
  _atom_site_thermal_displace_type
  _atom_site_B_iso_or_equiv
  _atom_site_type_symbol
  Mn1      1.0000 0.00000  0.03384  0.50188  Biso   1.000  Mn
  S1       1.0000 0.50000  0.16829  0.58489  Biso   1.000  S
  S2       1.0000 0.00000  0.33171  0.41511  Biso   1.000  S
  Mn2      1.0000 0.50000  0.46616  0.49812  Biso   1.000  Mn
  S3       1.0000 1.00000  0.66585  0.56828  Biso   1.000  S
  S4       1.0000 0.50000  0.83415  0.43172  Biso   1.000  S
