data_image0
_cell_length_a       3.5343
_cell_length_b       3.5343
_cell_length_c       18.5309
_cell_angle_alpha    90
_cell_angle_beta     90
_cell_angle_gamma    120

_symmetry_space_group_name_H-M    "P 1"
_symmetry_int_tables_number       1

loop_
  _symmetry_equiv_pos_as_xyz
  'x, y, z'

loop_
  _atom_site_label
  _atom_site_occupancy
  _atom_site_fract_x
  _atom_site_fract_y
  _atom_site_fract_z
  _atom_site_thermal_displace_type
  _atom_site_B_iso_or_equiv
  _atom_site_type_symbol
  Mn1      1.0000 0.33293  0.66599  0.55349  Biso   1.000  Mn
  S1       1.0000 0.66677  0.33334  0.40475  Biso   1.000  S
  S2       1.0000 0.99992  0.00004  0.59525  Biso   1.000  S
  Mn2      1.0000 0.33376  0.66739  0.44651  Biso   1.000  Mn
