data_image0
_cell_length_a       3.3017
_cell_length_b       5.64151
_cell_length_c       17.9073
_cell_angle_alpha    90
_cell_angle_beta     90
_cell_angle_gamma    90

_symmetry_space_group_name_H-M    "P 1"
_symmetry_int_tables_number       1

loop_
  _symmetry_equiv_pos_as_xyz
  'x, y, z'

loop_
  _atom_site_label
  _atom_site_occupancy
  _atom_site_fract_x
  _atom_site_fract_y
  _atom_site_fract_z
  _atom_site_thermal_displace_type
  _atom_site_B_iso_or_equiv
  _atom_site_type_symbol
  Mn1      1.0000 0.00000  0.05716  0.50309  Biso   1.000  Mn
  Se1      1.0000 0.50000  0.16832  0.59366  Biso   1.000  Se
  Se2      1.0000 0.00000  0.33168  0.40634  Biso   1.000  Se
  Mn2      1.0000 0.50000  0.44284  0.49691  Biso   1.000  Mn
  Se3      1.0000 1.00000  0.66909  0.57041  Biso   1.000  Se
  Se4      1.0000 0.50000  0.83091  0.42959  Biso   1.000  Se
