data_image0
_cell_length_a       3.77331
_cell_length_b       3.82665
_cell_length_c       17.7576
_cell_angle_alpha    90
_cell_angle_beta     90
_cell_angle_gamma    90

_symmetry_space_group_name_H-M    "P 1"
_symmetry_int_tables_number       1

loop_
  _symmetry_equiv_pos_as_xyz
  'x, y, z'

loop_
  _atom_site_label
  _atom_site_occupancy
  _atom_site_fract_x
  _atom_site_fract_y
  _atom_site_fract_z
  _atom_site_thermal_displace_type
  _atom_site_B_iso_or_equiv
  _atom_site_type_symbol
  Mn1      1.0000 0.00000  0.00005  0.50008  Biso   1.000  Mn
  Te1      1.0000 1.00000  0.49996  0.60418  Biso   1.000  Te
  Mn2      1.0000 0.50000  0.50004  0.50007  Biso   1.000  Mn
  Te2      1.0000 0.00000  0.49996  0.39598  Biso   1.000  Te
