data_image0
_cell_length_a       4.1581
_cell_length_b       4.1581
_cell_length_c       18.7488
_cell_angle_alpha    90
_cell_angle_beta     90
_cell_angle_gamma    120

_symmetry_space_group_name_H-M    "P 1"
_symmetry_int_tables_number       1

loop_
  _symmetry_equiv_pos_as_xyz
  'x, y, z'

loop_
  _atom_site_label
  _atom_site_occupancy
  _atom_site_fract_x
  _atom_site_fract_y
  _atom_site_fract_z
  _atom_site_thermal_displace_type
  _atom_site_B_iso_or_equiv
  _atom_site_type_symbol
  Mn1      1.0000 0.33332  0.66672  0.55109  Biso   1.000  Mn
  Te1      1.0000 0.66677  0.33341  0.40002  Biso   1.000  Te
  Te2      1.0000 0.00002  0.00017  0.59997  Biso   1.000  Te
  Mn2      1.0000 0.33350  0.66692  0.44891  Biso   1.000  Mn
