data_image0
_cell_length_a       3.54751
_cell_length_b       6.0221
_cell_length_c       18.1585
_cell_angle_alpha    90
_cell_angle_beta     90
_cell_angle_gamma    90

_symmetry_space_group_name_H-M    "P 1"
_symmetry_int_tables_number       1

loop_
  _symmetry_equiv_pos_as_xyz
  'x, y, z'

loop_
  _atom_site_label
  _atom_site_occupancy
  _atom_site_fract_x
  _atom_site_fract_y
  _atom_site_fract_z
  _atom_site_thermal_displace_type
  _atom_site_B_iso_or_equiv
  _atom_site_type_symbol
  Mn1      1.0000 0.00000  0.06379  0.50385  Biso   1.000  Mn
  Te1      1.0000 0.50000  0.16769  0.60168  Biso   1.000  Te
  Te2      1.0000 0.00000  0.33231  0.39832  Biso   1.000  Te
  Mn2      1.0000 0.50000  0.43621  0.49615  Biso   1.000  Mn
  Te3      1.0000 0.00000  0.66848  0.57391  Biso   1.000  Te
  Te4      1.0000 0.50000  0.83152  0.42609  Biso   1.000  Te
