data_image0
_cell_length_a       2.88201
_cell_length_b       2.88201
_cell_length_c       22.1345
_cell_angle_alpha    90
_cell_angle_beta     90
_cell_angle_gamma    120

_symmetry_space_group_name_H-M    "P 1"
_symmetry_int_tables_number       1

loop_
  _symmetry_equiv_pos_as_xyz
  'x, y, z'

loop_
  _atom_site_label
  _atom_site_occupancy
  _atom_site_fract_x
  _atom_site_fract_y
  _atom_site_fract_z
  _atom_site_thermal_displace_type
  _atom_site_B_iso_or_equiv
  _atom_site_type_symbol
  Mn1      1.0000 0.00000  0.00000  0.50000  Biso   1.000  Mn
  Mn2      1.0000 0.66667  0.33333  0.60833  Biso   1.000  Mn
  Mn3      1.0000 0.66667  0.33333  0.39167  Biso   1.000  Mn
  C1       1.0000 0.33333  0.66667  0.55247  Biso   1.000  C
  C2       1.0000 0.33333  0.66667  0.44753  Biso   1.000  C
  O1       1.0000 0.00000  0.00000  0.65243  Biso   1.000  O
  O2       1.0000 0.00000  0.00000  0.34757  Biso   1.000  O
