data_image0
_cell_length_a       2.92008
_cell_length_b       2.92008
_cell_length_c       26.3134
_cell_angle_alpha    90
_cell_angle_beta     90
_cell_angle_gamma    120

_symmetry_space_group_name_H-M    "P 1"
_symmetry_int_tables_number       1

loop_
  _symmetry_equiv_pos_as_xyz
  'x, y, z'

loop_
  _atom_site_label
  _atom_site_occupancy
  _atom_site_fract_x
  _atom_site_fract_y
  _atom_site_fract_z
  _atom_site_thermal_displace_type
  _atom_site_B_iso_or_equiv
  _atom_site_type_symbol
  Mn1      1.0000 0.33333  0.66667  0.45733  Biso   1.000  Mn
  Mn2      1.0000 0.66667  0.33333  0.54261  Biso   1.000  Mn
  Mn3      1.0000 0.00000  0.00000  0.36737  Biso   1.000  Mn
  Mn4      1.0000 0.00000  0.00000  0.63256  Biso   1.000  Mn
  N1       1.0000 0.00000  0.00000  0.50001  Biso   1.000  N
  N2       1.0000 0.66667  0.33333  0.40651  Biso   1.000  N
  N3       1.0000 0.33333  0.66667  0.59341  Biso   1.000  N
  O1       1.0000 0.66667  0.33333  0.67794  Biso   1.000  O
  O2       1.0000 0.33333  0.66667  0.32203  Biso   1.000  O
  H1       1.0000 0.66667  0.33333  0.71497  Biso   1.000  H
  H2       1.0000 0.33333  0.66667  0.28500  Biso   1.000  H
