data_image0
_cell_length_a       3.3678
_cell_length_b       6.30664
_cell_length_c       18.5337
_cell_angle_alpha    90
_cell_angle_beta     90
_cell_angle_gamma    90

_symmetry_space_group_name_H-M    "P 1"
_symmetry_int_tables_number       1

loop_
  _symmetry_equiv_pos_as_xyz
  'x, y, z'

loop_
  _atom_site_label
  _atom_site_occupancy
  _atom_site_fract_x
  _atom_site_fract_y
  _atom_site_fract_z
  _atom_site_thermal_displace_type
  _atom_site_B_iso_or_equiv
  _atom_site_type_symbol
  Mo1      1.0000 0.00000  0.06046  0.50751  Biso   1.000  Mo
  Br1      1.0000 0.50000  0.19155  0.60105  Biso   1.000  Br
  Br2      1.0000 0.00000  0.30845  0.39895  Biso   1.000  Br
  Mo2      1.0000 0.50000  0.43954  0.49249  Biso   1.000  Mo
  Br3      1.0000 0.00000  0.68307  0.57852  Biso   1.000  Br
  Br4      1.0000 0.50000  0.81693  0.42148  Biso   1.000  Br
