data_image0
_cell_length_a       3.29113
_cell_length_b       3.2913
_cell_length_c       18.8558
_cell_angle_alpha    90
_cell_angle_beta     90
_cell_angle_gamma    119.998

_symmetry_space_group_name_H-M    "P 1"
_symmetry_int_tables_number       1

loop_
  _symmetry_equiv_pos_as_xyz
  'x, y, z'

loop_
  _atom_site_label
  _atom_site_occupancy
  _atom_site_fract_x
  _atom_site_fract_y
  _atom_site_fract_z
  _atom_site_thermal_displace_type
  _atom_site_B_iso_or_equiv
  _atom_site_type_symbol
  Br1      1.0000 0.99986  0.00014  0.35074  Biso   1.000  Br
  Br2      1.0000 0.33348  0.66653  0.64933  Biso   1.000  Br
  Mo1      1.0000 0.00006  0.00000  0.54722  Biso   1.000  Mo
  Mo2      1.0000 0.33328  0.66666  0.45285  Biso   1.000  Mo
