data_image0
_cell_length_a       3.16349
_cell_length_b       3.16365
_cell_length_c       18.8558
_cell_angle_alpha    90
_cell_angle_beta     90
_cell_angle_gamma    119.998

_symmetry_space_group_name_H-M    "P 1"
_symmetry_int_tables_number       1

loop_
  _symmetry_equiv_pos_as_xyz
  'x, y, z'

loop_
  _atom_site_label
  _atom_site_occupancy
  _atom_site_fract_x
  _atom_site_fract_y
  _atom_site_fract_z
  _atom_site_thermal_displace_type
  _atom_site_B_iso_or_equiv
  _atom_site_type_symbol
  Cl1      1.0000 0.99977  0.00019  0.35699  Biso   1.000  Cl
  Cl2      1.0000 0.33357  0.66647  0.64302  Biso   1.000  Cl
  Mo1      1.0000 0.00010  0.99998  0.54991  Biso   1.000  Mo
  Mo2      1.0000 0.33324  0.66668  0.45011  Biso   1.000  Mo
