data_image0
_cell_length_a       4.12797
_cell_length_b       6.34042
_cell_length_c       18.2169
_cell_angle_alpha    90
_cell_angle_beta     90
_cell_angle_gamma    90

_symmetry_space_group_name_H-M    "P 1"
_symmetry_int_tables_number       1

loop_
  _symmetry_equiv_pos_as_xyz
  'x, y, z'

loop_
  _atom_site_label
  _atom_site_occupancy
  _atom_site_fract_x
  _atom_site_fract_y
  _atom_site_fract_z
  _atom_site_thermal_displace_type
  _atom_site_B_iso_or_equiv
  _atom_site_type_symbol
  Mo1      1.0000 0.00000  0.06610  0.50550  Biso   1.000  Mo
  I1       1.0000 0.50000  0.14782  0.60210  Biso   1.000  I
  I2       1.0000 0.00000  0.35218  0.39790  Biso   1.000  I
  Mo2      1.0000 0.50000  0.43390  0.49450  Biso   1.000  Mo
  I3       1.0000 0.00000  0.64692  0.57510  Biso   1.000  I
  I4       1.0000 0.50000  0.85308  0.42490  Biso   1.000  I
