data_image0
_cell_length_a       7.13338
_cell_length_b       7.13338
_cell_length_c       18.1742
_cell_angle_alpha    90
_cell_angle_beta     90
_cell_angle_gamma    120

_symmetry_space_group_name_H-M    "P 1"
_symmetry_int_tables_number       1

loop_
  _symmetry_equiv_pos_as_xyz
  'x, y, z'

loop_
  _atom_site_label
  _atom_site_occupancy
  _atom_site_fract_x
  _atom_site_fract_y
  _atom_site_fract_z
  _atom_site_thermal_displace_type
  _atom_site_B_iso_or_equiv
  _atom_site_type_symbol
  Mo1      1.0000 0.66667  0.33333  0.49996  Biso   1.000  Mo
  Mo2      1.0000 0.33333  0.66667  0.50004  Biso   1.000  Mo
  I1       1.0000 0.64426  0.00005  0.41076  Biso   1.000  I
  I2       1.0000 0.35579  0.35574  0.41076  Biso   1.000  I
  I3       1.0000 0.99995  0.64421  0.41076  Biso   1.000  I
  I4       1.0000 0.35574  0.99994  0.58924  Biso   1.000  I
  I5       1.0000 0.64421  0.64426  0.58924  Biso   1.000  I
  I6       1.0000 0.00006  0.35579  0.58924  Biso   1.000  I
