data_image0
_cell_length_a       2.86497
_cell_length_b       4.91986
_cell_length_c       17.1902
_cell_angle_alpha    90
_cell_angle_beta     90
_cell_angle_gamma    90

_symmetry_space_group_name_H-M    "P 1"
_symmetry_int_tables_number       1

loop_
  _symmetry_equiv_pos_as_xyz
  'x, y, z'

loop_
  _atom_site_label
  _atom_site_occupancy
  _atom_site_fract_x
  _atom_site_fract_y
  _atom_site_fract_z
  _atom_site_thermal_displace_type
  _atom_site_B_iso_or_equiv
  _atom_site_type_symbol
  Mo1      1.0000 0.00000  0.03553  0.48989  Biso   1.000  Mo
  O1       1.0000 1.00000  0.33443  0.57296  Biso   1.000  O
  Mo2      1.0000 0.50000  0.45313  0.49663  Biso   1.000  Mo
  O2       1.0000 0.00000  0.67660  0.43995  Biso   1.000  O
