data_image0
_cell_length_a       2.93513
_cell_length_b       5.0182
_cell_length_c       17.3269
_cell_angle_alpha    90
_cell_angle_beta     90
_cell_angle_gamma    90

_symmetry_space_group_name_H-M    "P 1"
_symmetry_int_tables_number       1

loop_
  _symmetry_equiv_pos_as_xyz
  'x, y, z'

loop_
  _atom_site_label
  _atom_site_occupancy
  _atom_site_fract_x
  _atom_site_fract_y
  _atom_site_fract_z
  _atom_site_thermal_displace_type
  _atom_site_B_iso_or_equiv
  _atom_site_type_symbol
  Mo1      1.0000 0.00000  0.03616  0.50242  Biso   1.000  Mo
  O1       1.0000 0.50000  0.14797  0.57558  Biso   1.000  O
  O2       1.0000 0.00000  0.35203  0.42442  Biso   1.000  O
  Mo2      1.0000 0.50000  0.46384  0.49758  Biso   1.000  Mo
  O3       1.0000 0.00000  0.65906  0.55528  Biso   1.000  O
  O4       1.0000 0.50000  0.84094  0.44472  Biso   1.000  O
