data_image0
_cell_length_a       6.37498
_cell_length_b       7.02698
_cell_length_c       18.4116
_cell_angle_alpha    90
_cell_angle_beta     90
_cell_angle_gamma    116.975

_symmetry_space_group_name_H-M    "P 1"
_symmetry_int_tables_number       1

loop_
  _symmetry_equiv_pos_as_xyz
  'x, y, z'

loop_
  _atom_site_label
  _atom_site_occupancy
  _atom_site_fract_x
  _atom_site_fract_y
  _atom_site_fract_z
  _atom_site_thermal_displace_type
  _atom_site_B_iso_or_equiv
  _atom_site_type_symbol
  Mo1      1.0000 0.97710  0.95394  0.49998  Biso   1.000  Mo
  Mo2      1.0000 0.35624  0.71274  0.50002  Biso   1.000  Mo
  P1       1.0000 0.66258  0.33349  0.44067  Biso   1.000  P
  P2       1.0000 0.67076  0.33319  0.55935  Biso   1.000  P
  Te1      1.0000 0.31097  0.97211  0.40246  Biso   1.000  Te
  Te2      1.0000 0.04274  0.33332  0.41717  Biso   1.000  Te
  Te3      1.0000 0.67214  0.69481  0.40246  Biso   1.000  Te
  Te4      1.0000 0.02240  0.69459  0.59754  Biso   1.000  Te
  Te5      1.0000 0.29059  0.33336  0.58283  Biso   1.000  Te
  Te6      1.0000 0.66118  0.97184  0.59754  Biso   1.000  Te
