data_image0
_cell_length_a       5.53227
_cell_length_b       6.13631
_cell_length_c       18.4116
_cell_angle_alpha    90
_cell_angle_beta     90
_cell_angle_gamma    116.794

_symmetry_space_group_name_H-M    "P 1"
_symmetry_int_tables_number       1

loop_
  _symmetry_equiv_pos_as_xyz
  'x, y, z'

loop_
  _atom_site_label
  _atom_site_occupancy
  _atom_site_fract_x
  _atom_site_fract_y
  _atom_site_fract_z
  _atom_site_thermal_displace_type
  _atom_site_B_iso_or_equiv
  _atom_site_type_symbol
  Mo1      1.0000 0.97668  0.95355  0.49998  Biso   1.000  Mo
  Mo2      1.0000 0.35666  0.71313  0.50004  Biso   1.000  Mo
  P1       1.0000 0.66998  0.33357  0.44042  Biso   1.000  P
  P2       1.0000 0.66335  0.33311  0.55957  Biso   1.000  P
  S1       1.0000 0.33530  0.99245  0.41312  Biso   1.000  S
  S2       1.0000 0.03246  0.33326  0.42166  Biso   1.000  S
  S3       1.0000 0.67661  0.67509  0.41313  Biso   1.000  S
  S4       1.0000 0.99801  0.67418  0.58690  Biso   1.000  S
  S5       1.0000 0.30090  0.33343  0.57836  Biso   1.000  S
  S6       1.0000 0.65675  0.99164  0.58689  Biso   1.000  S
