data_image0
_cell_length_a       3.28459
_cell_length_b       5.96267
_cell_length_c       18.4497
_cell_angle_alpha    90
_cell_angle_beta     90
_cell_angle_gamma    90

_symmetry_space_group_name_H-M    "P 1"
_symmetry_int_tables_number       1

loop_
  _symmetry_equiv_pos_as_xyz
  'x, y, z'

loop_
  _atom_site_label
  _atom_site_occupancy
  _atom_site_fract_x
  _atom_site_fract_y
  _atom_site_fract_z
  _atom_site_thermal_displace_type
  _atom_site_B_iso_or_equiv
  _atom_site_type_symbol
  Mo1      1.0000 0.00000  0.05948  0.50467  Biso   1.000  Mo
  Se1      1.0000 0.50000  0.16886  0.60156  Biso   1.000  Se
  Se2      1.0000 0.00000  0.33114  0.39844  Biso   1.000  Se
  Mo2      1.0000 0.50000  0.44052  0.49533  Biso   1.000  Mo
  Se3      1.0000 1.00000  0.67479  0.57601  Biso   1.000  Se
  Se4      1.0000 0.50000  0.82521  0.42399  Biso   1.000  Se
