data_image0
_cell_length_a       3.18335
_cell_length_b       5.72398
_cell_length_c       18.1583
_cell_angle_alpha    90
_cell_angle_beta     90
_cell_angle_gamma    90

_symmetry_space_group_name_H-M    "P 1"
_symmetry_int_tables_number       1

loop_
  _symmetry_equiv_pos_as_xyz
  'x, y, z'

loop_
  _atom_site_label
  _atom_site_occupancy
  _atom_site_fract_x
  _atom_site_fract_y
  _atom_site_fract_z
  _atom_site_thermal_displace_type
  _atom_site_B_iso_or_equiv
  _atom_site_type_symbol
  Mo1      1.0000 0.00000  0.05170  0.50423  Biso   1.000  Mo
  S1       1.0000 0.50000  0.16721  0.59536  Biso   1.000  S
  S2       1.0000 0.00000  0.33279  0.40464  Biso   1.000  S
  Mo2      1.0000 0.50000  0.44830  0.49577  Biso   1.000  Mo
  S3       1.0000 1.00000  0.67107  0.57313  Biso   1.000  S
  S4       1.0000 0.50000  0.82893  0.42687  Biso   1.000  S
