data_image0
_cell_length_a       3.12603
_cell_length_b       3.12511
_cell_length_c       20.7246
_cell_angle_alpha    90
_cell_angle_beta     90
_cell_angle_gamma    120.01

_symmetry_space_group_name_H-M    "P 1"
_symmetry_int_tables_number       1

loop_
  _symmetry_equiv_pos_as_xyz
  'x, y, z'

loop_
  _atom_site_label
  _atom_site_occupancy
  _atom_site_fract_x
  _atom_site_fract_y
  _atom_site_fract_z
  _atom_site_thermal_displace_type
  _atom_site_B_iso_or_equiv
  _atom_site_type_symbol
  Mo1      1.0000 0.50005  0.50277  0.55392  Biso   1.000  Mo
  Se1      1.0000 0.49954  0.49634  0.36193  Biso   1.000  Se
  Se2      1.0000 0.16665  0.83605  0.63807  Biso   1.000  Se
  Mo2      1.0000 0.16612  0.82956  0.44608  Biso   1.000  Mo
