data_image0
_cell_length_a       4.87668
_cell_length_b       3.21212
_cell_length_c       20.9881
_cell_angle_alpha    90
_cell_angle_beta     90
_cell_angle_gamma    90

_symmetry_space_group_name_H-M    "P 1"
_symmetry_int_tables_number       1

loop_
  _symmetry_equiv_pos_as_xyz
  'x, y, z'

loop_
  _atom_site_label
  _atom_site_occupancy
  _atom_site_fract_x
  _atom_site_fract_y
  _atom_site_fract_z
  _atom_site_thermal_displace_type
  _atom_site_B_iso_or_equiv
  _atom_site_type_symbol
  Mo1      1.0000 0.63186  0.25000  0.57071  Biso   1.000  Mo
  Mo2      1.0000 0.13136  0.75000  0.42929  Biso   1.000  Mo
  S1       1.0000 0.13163  0.25000  0.51959  Biso   1.000  S
  S2       1.0000 0.63159  0.75000  0.48041  Biso   1.000  S
  S3       1.0000 0.36326  0.25000  0.35840  Biso   1.000  S
  S4       1.0000 0.39996  0.75000  0.64160  Biso   1.000  S
  S5       1.0000 0.89954  0.25000  0.35838  Biso   1.000  S
  S6       1.0000 0.86368  0.75000  0.64162  Biso   1.000  S
