data_image0
_cell_length_a       3.67498
_cell_length_b       3.80543
_cell_length_c       17.5785
_cell_angle_alpha    90
_cell_angle_beta     90
_cell_angle_gamma    90

_symmetry_space_group_name_H-M    "P 1"
_symmetry_int_tables_number       1

loop_
  _symmetry_equiv_pos_as_xyz
  'x, y, z'

loop_
  _atom_site_label
  _atom_site_occupancy
  _atom_site_fract_x
  _atom_site_fract_y
  _atom_site_fract_z
  _atom_site_thermal_displace_type
  _atom_site_B_iso_or_equiv
  _atom_site_type_symbol
  Mo1      1.0000 0.00000  0.98354  0.49999  Biso   1.000  Mo
  S1       1.0000 0.00000  0.48227  0.59489  Biso   1.000  S
  Mo2      1.0000 0.50000  0.55148  0.49992  Biso   1.000  Mo
  S2       1.0000 0.00000  0.48229  0.40506  Biso   1.000  S
