data_image0
_cell_length_a       5.9942
_cell_length_b       3.27406
_cell_length_c       21.2499
_cell_angle_alpha    90
_cell_angle_beta     90
_cell_angle_gamma    90

_symmetry_space_group_name_H-M    "P 1"
_symmetry_int_tables_number       1

loop_
  _symmetry_equiv_pos_as_xyz
  'x, y, z'

loop_
  _atom_site_label
  _atom_site_occupancy
  _atom_site_fract_x
  _atom_site_fract_y
  _atom_site_fract_z
  _atom_site_thermal_displace_type
  _atom_site_B_iso_or_equiv
  _atom_site_type_symbol
  Mo1      1.0000 0.47979  0.25000  0.58709  Biso   1.000  Mo
  Mo2      1.0000 0.28347  0.75000  0.41304  Biso   1.000  Mo
  Se1      1.0000 0.15292  0.25000  0.50271  Biso   1.000  Se
  Se2      1.0000 0.61036  0.75000  0.49740  Biso   1.000  Se
  Se3      1.0000 0.53616  0.25000  0.35607  Biso   1.000  Se
  Se4      1.0000 0.22710  0.75000  0.64402  Biso   1.000  Se
  Se5      1.0000 0.03359  0.25000  0.35727  Biso   1.000  Se
  Se6      1.0000 0.72965  0.75000  0.64282  Biso   1.000  Se
