data_image0
_cell_length_a       6.53456
_cell_length_b       3.3906
_cell_length_c       21.8312
_cell_angle_alpha    90
_cell_angle_beta     90
_cell_angle_gamma    90

_symmetry_space_group_name_H-M    "P 1"
_symmetry_int_tables_number       1

loop_
  _symmetry_equiv_pos_as_xyz
  'x, y, z'

loop_
  _atom_site_label
  _atom_site_occupancy
  _atom_site_fract_x
  _atom_site_fract_y
  _atom_site_fract_z
  _atom_site_thermal_displace_type
  _atom_site_B_iso_or_equiv
  _atom_site_type_symbol
  Mo1      1.0000 0.48236  0.25000  0.58966  Biso   1.000  Mo
  Mo2      1.0000 0.28085  0.75000  0.41033  Biso   1.000  Mo
  Te1      1.0000 0.14914  0.25000  0.50470  Biso   1.000  Te
  Te2      1.0000 0.61407  0.75000  0.49530  Biso   1.000  Te
  Te3      1.0000 0.52690  0.25000  0.34349  Biso   1.000  Te
  Te4      1.0000 0.23631  0.75000  0.65650  Biso   1.000  Te
  Te5      1.0000 0.03380  0.25000  0.34606  Biso   1.000  Te
  Te6      1.0000 0.72942  0.75000  0.65393  Biso   1.000  Te
