data_image0
_cell_length_a       3.78231
_cell_length_b       3.90498
_cell_length_c       17.907
_cell_angle_alpha    90
_cell_angle_beta     90
_cell_angle_gamma    90

_symmetry_space_group_name_H-M    "P 1"
_symmetry_int_tables_number       1

loop_
  _symmetry_equiv_pos_as_xyz
  'x, y, z'

loop_
  _atom_site_label
  _atom_site_occupancy
  _atom_site_fract_x
  _atom_site_fract_y
  _atom_site_fract_z
  _atom_site_thermal_displace_type
  _atom_site_B_iso_or_equiv
  _atom_site_type_symbol
  Mo1      1.0000 0.00000  0.97379  0.48938  Biso   1.000  Mo
  Te1      1.0000 0.00000  0.47080  0.60337  Biso   1.000  Te
  Mo2      1.0000 0.50000  0.55031  0.48937  Biso   1.000  Mo
  Te2      1.0000 1.00000  0.47030  0.37541  Biso   1.000  Te
