data_image0
_cell_length_a       3.45565
_cell_length_b       6.36082
_cell_length_c       18.729
_cell_angle_alpha    90
_cell_angle_beta     90
_cell_angle_gamma    90

_symmetry_space_group_name_H-M    "P 1"
_symmetry_int_tables_number       1

loop_
  _symmetry_equiv_pos_as_xyz
  'x, y, z'

loop_
  _atom_site_label
  _atom_site_occupancy
  _atom_site_fract_x
  _atom_site_fract_y
  _atom_site_fract_z
  _atom_site_thermal_displace_type
  _atom_site_B_iso_or_equiv
  _atom_site_type_symbol
  Mo1      1.0000 0.00000  0.06861  0.50515  Biso   1.000  Mo
  Te1      1.0000 0.50000  0.17266  0.61018  Biso   1.000  Te
  Te2      1.0000 0.00000  0.32734  0.38982  Biso   1.000  Te
  Mo2      1.0000 0.50000  0.43139  0.49485  Biso   1.000  Mo
  Te3      1.0000 0.00000  0.68021  0.57892  Biso   1.000  Te
  Te4      1.0000 0.50000  0.81979  0.42108  Biso   1.000  Te
