data_image0
_cell_length_a       6.64076
_cell_length_b       5.75069
_cell_length_c       18.3474
_cell_angle_alpha    90
_cell_angle_beta     90
_cell_angle_gamma    90

_symmetry_space_group_name_H-M    "P 1"
_symmetry_int_tables_number       1

loop_
  _symmetry_equiv_pos_as_xyz
  'x, y, z'

loop_
  _atom_site_label
  _atom_site_occupancy
  _atom_site_fract_x
  _atom_site_fract_y
  _atom_site_fract_z
  _atom_site_thermal_displace_type
  _atom_site_B_iso_or_equiv
  _atom_site_type_symbol
  Mo1      1.0000 0.00064  0.00000  0.49996  Biso   1.000  Mo
  Mo2      1.0000 0.50066  0.00003  0.50004  Biso   1.000  Mo
  W1       1.0000 0.25058  0.50191  0.49999  Biso   1.000  W
  W2       1.0000 0.75057  0.50195  0.49999  Biso   1.000  W
  Se1      1.0000 0.00063  0.33418  0.40880  Biso   1.000  Se
  Se2      1.0000 0.25053  0.83430  0.59122  Biso   1.000  Se
  Se3      1.0000 0.00053  0.33406  0.59112  Biso   1.000  Se
  Se4      1.0000 0.25087  0.83434  0.40879  Biso   1.000  Se
  Se5      1.0000 0.50065  0.33401  0.40886  Biso   1.000  Se
  Se6      1.0000 0.75070  0.83432  0.59122  Biso   1.000  Se
  Se7      1.0000 0.50053  0.33424  0.59119  Biso   1.000  Se
  Se8      1.0000 0.75064  0.83437  0.40878  Biso   1.000  Se
