data_image0
_cell_length_a       6.37334
_cell_length_b       5.51907
_cell_length_c       18.1341
_cell_angle_alpha    90
_cell_angle_beta     90
_cell_angle_gamma    90

_symmetry_space_group_name_H-M    "P 1"
_symmetry_int_tables_number       1

loop_
  _symmetry_equiv_pos_as_xyz
  'x, y, z'

loop_
  _atom_site_label
  _atom_site_occupancy
  _atom_site_fract_x
  _atom_site_fract_y
  _atom_site_fract_z
  _atom_site_thermal_displace_type
  _atom_site_B_iso_or_equiv
  _atom_site_type_symbol
  Mo1      1.0000 0.00081  0.99993  0.49997  Biso   1.000  Mo
  Mo2      1.0000 0.50081  0.99996  0.50003  Biso   1.000  Mo
  W1       1.0000 0.25077  0.50197  0.49999  Biso   1.000  W
  W2       1.0000 0.75076  0.50196  0.49999  Biso   1.000  W
  S1       1.0000 0.00073  0.33450  0.41359  Biso   1.000  S
  S2       1.0000 0.25074  0.83392  0.58641  Biso   1.000  S
  S3       1.0000 0.00079  0.33441  0.58634  Biso   1.000  S
  S4       1.0000 0.25088  0.83397  0.41359  Biso   1.000  S
  S5       1.0000 0.50073  0.33439  0.41363  Biso   1.000  S
  S6       1.0000 0.75098  0.83393  0.58641  Biso   1.000  S
  S7       1.0000 0.50079  0.33458  0.58640  Biso   1.000  S
  S8       1.0000 0.75074  0.83396  0.41359  Biso   1.000  S
