data_image0
_cell_length_a       7.09967
_cell_length_b       6.14764
_cell_length_c       18.6166
_cell_angle_alpha    90
_cell_angle_beta     90
_cell_angle_gamma    90

_symmetry_space_group_name_H-M    "P 1"
_symmetry_int_tables_number       1

loop_
  _symmetry_equiv_pos_as_xyz
  'x, y, z'

loop_
  _atom_site_label
  _atom_site_occupancy
  _atom_site_fract_x
  _atom_site_fract_y
  _atom_site_fract_z
  _atom_site_thermal_displace_type
  _atom_site_B_iso_or_equiv
  _atom_site_type_symbol
  Mo1      1.0000 0.00079  0.00024  0.50000  Biso   1.000  Mo
  Mo2      1.0000 0.50097  0.00037  0.50001  Biso   1.000  Mo
  W1       1.0000 0.25087  0.50135  0.50000  Biso   1.000  W
  W2       1.0000 0.75070  0.50152  0.50000  Biso   1.000  W
  Te1      1.0000 0.00075  0.33357  0.40296  Biso   1.000  Te
  Te2      1.0000 0.25088  0.83470  0.59707  Biso   1.000  Te
  Te3      1.0000 0.00075  0.33362  0.59707  Biso   1.000  Te
  Te4      1.0000 0.25089  0.83470  0.40291  Biso   1.000  Te
  Te5      1.0000 0.50082  0.33356  0.40290  Biso   1.000  Te
  Te6      1.0000 0.75091  0.83468  0.59713  Biso   1.000  Te
  Te7      1.0000 0.50081  0.33362  0.59711  Biso   1.000  Te
  Te8      1.0000 0.75085  0.83474  0.40287  Biso   1.000  Te
