data_image0
_cell_length_a       2.89204
_cell_length_b       2.89204
_cell_length_c       23.4418
_cell_angle_alpha    90
_cell_angle_beta     90
_cell_angle_gamma    120

_symmetry_space_group_name_H-M    "P 1"
_symmetry_int_tables_number       1

loop_
  _symmetry_equiv_pos_as_xyz
  'x, y, z'

loop_
  _atom_site_label
  _atom_site_occupancy
  _atom_site_fract_x
  _atom_site_fract_y
  _atom_site_fract_z
  _atom_site_thermal_displace_type
  _atom_site_B_iso_or_equiv
  _atom_site_type_symbol
  Mo1      1.0000 0.00000  0.00000  0.50000  Biso   1.000  Mo
  Mo2      1.0000 0.66667  0.33333  0.61622  Biso   1.000  Mo
  Mo3      1.0000 0.66667  0.33333  0.38378  Biso   1.000  Mo
  C1       1.0000 0.33333  0.66667  0.55908  Biso   1.000  C
  C2       1.0000 0.33333  0.66667  0.44092  Biso   1.000  C
  F1       1.0000 0.00000  0.00000  0.68042  Biso   1.000  F
  F2       1.0000 0.00000  0.00000  0.31958  Biso   1.000  F
