data_image0
_cell_length_a       2.92436
_cell_length_b       2.92436
_cell_length_c       25.249
_cell_angle_alpha    90
_cell_angle_beta     90
_cell_angle_gamma    120

_symmetry_space_group_name_H-M    "P 1"
_symmetry_int_tables_number       1

loop_
  _symmetry_equiv_pos_as_xyz
  'x, y, z'

loop_
  _atom_site_label
  _atom_site_occupancy
  _atom_site_fract_x
  _atom_site_fract_y
  _atom_site_fract_z
  _atom_site_thermal_displace_type
  _atom_site_B_iso_or_equiv
  _atom_site_type_symbol
  Mo1      1.0000 0.00000  0.00000  0.50000  Biso   1.000  Mo
  Mo2      1.0000 0.66667  0.33333  0.60737  Biso   1.000  Mo
  Mo3      1.0000 0.66667  0.33333  0.39263  Biso   1.000  Mo
  C1       1.0000 0.33333  0.66667  0.55410  Biso   1.000  C
  C2       1.0000 0.33333  0.66667  0.44590  Biso   1.000  C
  O1       1.0000 0.00000  0.00000  0.66463  Biso   1.000  O
  O2       1.0000 0.00000  0.00000  0.33537  Biso   1.000  O
  H1       1.0000 0.00000  0.00000  0.70339  Biso   1.000  H
  H2       1.0000 0.00000  0.00000  0.29661  Biso   1.000  H
