data_image0
_cell_length_a       6.64096
_cell_length_b       5.75008
_cell_length_c       18.3418
_cell_angle_alpha    90
_cell_angle_beta     90
_cell_angle_gamma    90

_symmetry_space_group_name_H-M    "P 1"
_symmetry_int_tables_number       1

loop_
  _symmetry_equiv_pos_as_xyz
  'x, y, z'

loop_
  _atom_site_label
  _atom_site_occupancy
  _atom_site_fract_x
  _atom_site_fract_y
  _atom_site_fract_z
  _atom_site_thermal_displace_type
  _atom_site_B_iso_or_equiv
  _atom_site_type_symbol
  Mo1      1.0000 0.00098  0.00050  0.49999  Biso   1.000  Mo
  Mo2      1.0000 0.50032  0.00052  0.50002  Biso   1.000  Mo
  Mo3      1.0000 0.25061  0.50226  0.50000  Biso   1.000  Mo
  W1       1.0000 0.75061  0.50044  0.50000  Biso   1.000  W
  Se1      1.0000 0.00090  0.33424  0.40891  Biso   1.000  Se
  Se2      1.0000 0.25066  0.83475  0.59110  Biso   1.000  Se
  Se3      1.0000 0.00091  0.33419  0.59107  Biso   1.000  Se
  Se4      1.0000 0.25073  0.83477  0.40890  Biso   1.000  Se
  Se5      1.0000 0.50033  0.33418  0.40892  Biso   1.000  Se
  Se6      1.0000 0.75076  0.83381  0.59108  Biso   1.000  Se
  Se7      1.0000 0.50036  0.33427  0.59109  Biso   1.000  Se
  Se8      1.0000 0.75063  0.83385  0.40891  Biso   1.000  Se
