data_image0
_cell_length_a       3.18994
_cell_length_b       3.18994
_cell_length_c       23.7166
_cell_angle_alpha    90
_cell_angle_beta     90
_cell_angle_gamma    120

_symmetry_space_group_name_H-M    "P 1"
_symmetry_int_tables_number       1

loop_
  _symmetry_equiv_pos_as_xyz
  'x, y, z'

loop_
  _atom_site_label
  _atom_site_occupancy
  _atom_site_fract_x
  _atom_site_fract_y
  _atom_site_fract_z
  _atom_site_thermal_displace_type
  _atom_site_B_iso_or_equiv
  _atom_site_type_symbol
  Mo1      1.0000 0.33333  0.66667  0.44234  Biso   1.000  Mo
  Mo2      1.0000 0.66667  0.33333  0.55754  Biso   1.000  Mo
  Mo3      1.0000 0.00000  0.00000  0.35699  Biso   1.000  Mo
  Mo4      1.0000 0.00000  0.00000  0.64299  Biso   1.000  Mo
  N1       1.0000 0.00000  0.00000  0.50029  Biso   1.000  N
  N2       1.0000 0.66667  0.33333  0.40442  Biso   1.000  N
  N3       1.0000 0.33333  0.66667  0.59608  Biso   1.000  N
  O1       1.0000 0.66667  0.33333  0.68454  Biso   1.000  O
  O2       1.0000 0.33333  0.66667  0.31554  Biso   1.000  O
