data_image0
_cell_length_a       7.10036
_cell_length_b       6.1481
_cell_length_c       18.6216
_cell_angle_alpha    90
_cell_angle_beta     90
_cell_angle_gamma    90

_symmetry_space_group_name_H-M    "P 1"
_symmetry_int_tables_number       1

loop_
  _symmetry_equiv_pos_as_xyz
  'x, y, z'

loop_
  _atom_site_label
  _atom_site_occupancy
  _atom_site_fract_x
  _atom_site_fract_y
  _atom_site_fract_z
  _atom_site_thermal_displace_type
  _atom_site_B_iso_or_equiv
  _atom_site_type_symbol
  Mo1      1.0000 0.00075  0.00091  0.50001  Biso   1.000  Mo
  W1       1.0000 0.50105  0.00002  0.49999  Biso   1.000  W
  W2       1.0000 0.25054  0.50106  0.50002  Biso   1.000  W
  W3       1.0000 0.75099  0.50132  0.50002  Biso   1.000  W
  Te1      1.0000 0.00072  0.33370  0.40290  Biso   1.000  Te
  Te2      1.0000 0.25033  0.83448  0.59715  Biso   1.000  Te
  Te3      1.0000 0.00071  0.33370  0.59713  Biso   1.000  Te
  Te4      1.0000 0.25033  0.83445  0.40285  Biso   1.000  Te
  Te5      1.0000 0.50081  0.33404  0.40281  Biso   1.000  Te
  Te6      1.0000 0.75150  0.83447  0.59724  Biso   1.000  Te
  Te7      1.0000 0.50080  0.33403  0.59721  Biso   1.000  Te
  Te8      1.0000 0.75147  0.83447  0.40276  Biso   1.000  Te
