data_image0
_cell_length_a       6.64095
_cell_length_b       5.75024
_cell_length_c       18.3523
_cell_angle_alpha    90
_cell_angle_beta     90
_cell_angle_gamma    90

_symmetry_space_group_name_H-M    "P 1"
_symmetry_int_tables_number       1

loop_
  _symmetry_equiv_pos_as_xyz
  'x, y, z'

loop_
  _atom_site_label
  _atom_site_occupancy
  _atom_site_fract_x
  _atom_site_fract_y
  _atom_site_fract_z
  _atom_site_thermal_displace_type
  _atom_site_B_iso_or_equiv
  _atom_site_type_symbol
  Mo1      1.0000 0.00015  0.00145  0.50002  Biso   1.000  Mo
  W1       1.0000 0.50015  0.99969  0.49999  Biso   1.000  W
  W2       1.0000 0.25003  0.50164  0.50000  Biso   1.000  W
  W3       1.0000 0.75034  0.50164  0.50000  Biso   1.000  W
  Se1      1.0000 0.00021  0.33477  0.40877  Biso   1.000  Se
  Se2      1.0000 0.24991  0.83451  0.59133  Biso   1.000  Se
  Se3      1.0000 0.00019  0.33483  0.59126  Biso   1.000  Se
  Se4      1.0000 0.24988  0.83452  0.40867  Biso   1.000  Se
  Se5      1.0000 0.50020  0.33392  0.40868  Biso   1.000  Se
  Se6      1.0000 0.75041  0.83452  0.59133  Biso   1.000  Se
  Se7      1.0000 0.50019  0.33387  0.59130  Biso   1.000  Se
  Se8      1.0000 0.75048  0.83452  0.40867  Biso   1.000  Se
