data_image0
_cell_length_a       6.89167
_cell_length_b       6.89167
_cell_length_c       15
_cell_angle_alpha    90
_cell_angle_beta     90
_cell_angle_gamma    60.0017

_symmetry_space_group_name_H-M    "P 1"
_symmetry_int_tables_number       1

loop_
  _symmetry_equiv_pos_as_xyz
  'x, y, z'

loop_
  _atom_site_label
  _atom_site_occupancy
  _atom_site_fract_x
  _atom_site_fract_y
  _atom_site_fract_z
  _atom_site_thermal_displace_type
  _atom_site_B_iso_or_equiv
  _atom_site_type_symbol
  Si1      1.0000 0.01885  0.01885  0.50000  Biso   1.000  Si
  N1       1.0000 0.16672  0.16672  0.50000  Biso   1.000  N
  Si2      1.0000 0.46242  0.01877  0.50000  Biso   1.000  Si
  Si3      1.0000 0.01877  0.46242  0.50000  Biso   1.000  Si
  Si4      1.0000 0.64790  0.20426  0.50000  Biso   1.000  Si
  Si5      1.0000 0.20426  0.64790  0.50000  Biso   1.000  Si
  N2       1.0000 0.49996  0.49996  0.50000  Biso   1.000  N
  Si6      1.0000 0.64783  0.64783  0.50000  Biso   1.000  Si
