data_image0
_cell_length_a       5.02954
_cell_length_b       3.50269
_cell_length_c       21.3418
_cell_angle_alpha    90
_cell_angle_beta     90
_cell_angle_gamma    90

_symmetry_space_group_name_H-M    "P 1"
_symmetry_int_tables_number       1

loop_
  _symmetry_equiv_pos_as_xyz
  'x, y, z'

loop_
  _atom_site_label
  _atom_site_occupancy
  _atom_site_fract_x
  _atom_site_fract_y
  _atom_site_fract_z
  _atom_site_thermal_displace_type
  _atom_site_B_iso_or_equiv
  _atom_site_type_symbol
  Nb1      1.0000 0.50000  1.00000  0.46842  Biso   1.000  Nb
  Nb2      1.0000 1.00000  0.50000  0.53158  Biso   1.000  Nb
  Se1      1.0000 0.50000  0.50000  0.56073  Biso   1.000  Se
  Se2      1.0000 0.00000  0.00000  0.43926  Biso   1.000  Se
  Br1      1.0000 0.50000  0.50000  0.37137  Biso   1.000  Br
  Br2      1.0000 0.00000  0.00000  0.62863  Biso   1.000  Br
