data_image0
_cell_length_a       4.10249
_cell_length_b       4.10457
_cell_length_c       18.8558
_cell_angle_alpha    90
_cell_angle_beta     90
_cell_angle_gamma    119.983

_symmetry_space_group_name_H-M    "P 1"
_symmetry_int_tables_number       1

loop_
  _symmetry_equiv_pos_as_xyz
  'x, y, z'

loop_
  _atom_site_label
  _atom_site_occupancy
  _atom_site_fract_x
  _atom_site_fract_y
  _atom_site_fract_z
  _atom_site_thermal_displace_type
  _atom_site_B_iso_or_equiv
  _atom_site_type_symbol
  Br1      1.0000 0.99993  0.00008  0.38898  Biso   1.000  Br
  Br2      1.0000 0.33340  0.66659  0.61109  Biso   1.000  Br
  Nb1      1.0000 0.00004  0.00008  0.53342  Biso   1.000  Nb
  Nb2      1.0000 0.33329  0.66659  0.46665  Biso   1.000  Nb
