data_image0
_cell_length_a       4.01075
_cell_length_b       4.01226
_cell_length_c       18.8558
_cell_angle_alpha    90
_cell_angle_beta     90
_cell_angle_gamma    119.988

_symmetry_space_group_name_H-M    "P 1"
_symmetry_int_tables_number       1

loop_
  _symmetry_equiv_pos_as_xyz
  'x, y, z'

loop_
  _atom_site_label
  _atom_site_occupancy
  _atom_site_fract_x
  _atom_site_fract_y
  _atom_site_fract_z
  _atom_site_thermal_displace_type
  _atom_site_B_iso_or_equiv
  _atom_site_type_symbol
  Cl1      1.0000 0.99991  0.00010  0.39687  Biso   1.000  Cl
  Cl2      1.0000 0.33343  0.66657  0.60320  Biso   1.000  Cl
  Nb1      1.0000 0.00004  0.00006  0.53405  Biso   1.000  Nb
  Nb2      1.0000 0.33330  0.66661  0.46602  Biso   1.000  Nb
