data_image0
_cell_length_a       3.29487
_cell_length_b       5.91775
_cell_length_c       18.5033
_cell_angle_alpha    90
_cell_angle_beta     90
_cell_angle_gamma    90

_symmetry_space_group_name_H-M    "P 1"
_symmetry_int_tables_number       1

loop_
  _symmetry_equiv_pos_as_xyz
  'x, y, z'

loop_
  _atom_site_label
  _atom_site_occupancy
  _atom_site_fract_x
  _atom_site_fract_y
  _atom_site_fract_z
  _atom_site_thermal_displace_type
  _atom_site_B_iso_or_equiv
  _atom_site_type_symbol
  Nb1      1.0000 0.00000  0.05465  0.50390  Biso   1.000  Nb
  Cl1      1.0000 0.50000  0.17807  0.59703  Biso   1.000  Cl
  Cl2      1.0000 0.00000  0.32193  0.40297  Biso   1.000  Cl
  Nb2      1.0000 0.50000  0.44535  0.49610  Biso   1.000  Nb
  Cl3      1.0000 1.00000  0.67521  0.57819  Biso   1.000  Cl
  Cl4      1.0000 0.50000  0.82479  0.42181  Biso   1.000  Cl
