data_image0
_cell_length_a       2.92224
_cell_length_b       2.92319
_cell_length_c       18.8558
_cell_angle_alpha    90
_cell_angle_beta     90
_cell_angle_gamma    119.989

_symmetry_space_group_name_H-M    "P 1"
_symmetry_int_tables_number       1

loop_
  _symmetry_equiv_pos_as_xyz
  'x, y, z'

loop_
  _atom_site_label
  _atom_site_occupancy
  _atom_site_fract_x
  _atom_site_fract_y
  _atom_site_fract_z
  _atom_site_thermal_displace_type
  _atom_site_B_iso_or_equiv
  _atom_site_type_symbol
  F1       1.0000 0.99998  0.00007  0.35894  Biso   1.000  F
  F2       1.0000 0.33335  0.66660  0.64113  Biso   1.000  F
  Nb1      1.0000 0.99999  0.00014  0.56663  Biso   1.000  Nb
  Nb2      1.0000 0.33335  0.66653  0.43344  Biso   1.000  Nb
