data_image0
_cell_length_a       3.60992
_cell_length_b       4.52596
_cell_length_c       18.8558
_cell_angle_alpha    90
_cell_angle_beta     90
_cell_angle_gamma    113.503

_symmetry_space_group_name_H-M    "P 1"
_symmetry_int_tables_number       1

loop_
  _symmetry_equiv_pos_as_xyz
  'x, y, z'

loop_
  _atom_site_label
  _atom_site_occupancy
  _atom_site_fract_x
  _atom_site_fract_y
  _atom_site_fract_z
  _atom_site_thermal_displace_type
  _atom_site_B_iso_or_equiv
  _atom_site_type_symbol
  I1       1.0000 0.00633  0.01336  0.38074  Biso   1.000  I
  I2       1.0000 0.32701  0.65332  0.61934  Biso   1.000  I
  Nb1      1.0000 0.01342  0.02644  0.53246  Biso   1.000  Nb
  Nb2      1.0000 0.31991  0.64022  0.46764  Biso   1.000  Nb
