data_image0
_cell_length_a       7.15334
_cell_length_b       7.15334
_cell_length_c       18.4236
_cell_angle_alpha    90
_cell_angle_beta     90
_cell_angle_gamma    120

_symmetry_space_group_name_H-M    "P 1"
_symmetry_int_tables_number       1

loop_
  _symmetry_equiv_pos_as_xyz
  'x, y, z'

loop_
  _atom_site_label
  _atom_site_occupancy
  _atom_site_fract_x
  _atom_site_fract_y
  _atom_site_fract_z
  _atom_site_thermal_displace_type
  _atom_site_B_iso_or_equiv
  _atom_site_type_symbol
  Nb1      1.0000 0.66667  0.33333  0.50000  Biso   1.000  Nb
  Nb2      1.0000 0.33333  0.66667  0.50000  Biso   1.000  Nb
  I1       1.0000 0.65148  1.00000  0.41012  Biso   1.000  I
  I2       1.0000 0.34851  0.34852  0.41012  Biso   1.000  I
  I3       1.0000 0.00000  0.65149  0.41012  Biso   1.000  I
  I4       1.0000 0.34851  0.00000  0.58988  Biso   1.000  I
  I5       1.0000 0.65149  0.65149  0.58988  Biso   1.000  I
  I6       1.0000 1.00000  0.34851  0.58988  Biso   1.000  I
