data_image0
_cell_length_a       3.08337
_cell_length_b       5.30961
_cell_length_c       17.1762
_cell_angle_alpha    90
_cell_angle_beta     90
_cell_angle_gamma    90

_symmetry_space_group_name_H-M    "P 1"
_symmetry_int_tables_number       1

loop_
  _symmetry_equiv_pos_as_xyz
  'x, y, z'

loop_
  _atom_site_label
  _atom_site_occupancy
  _atom_site_fract_x
  _atom_site_fract_y
  _atom_site_fract_z
  _atom_site_thermal_displace_type
  _atom_site_B_iso_or_equiv
  _atom_site_type_symbol
  Nb1      1.0000 0.00000  0.02023  0.50289  Biso   1.000  Nb
  O1       1.0000 0.50000  0.14365  0.56842  Biso   1.000  O
  O2       1.0000 0.00000  0.35635  0.43158  Biso   1.000  O
  Nb2      1.0000 0.50000  0.47977  0.49711  Biso   1.000  Nb
  O3       1.0000 1.00000  0.66321  0.55483  Biso   1.000  O
  O4       1.0000 0.50000  0.83679  0.44517  Biso   1.000  O
