data_image0
_cell_length_a       6.01559
_cell_length_b       6.51105
_cell_length_c       18.5358
_cell_angle_alpha    90
_cell_angle_beta     90
_cell_angle_gamma    117.513

_symmetry_space_group_name_H-M    "P 1"
_symmetry_int_tables_number       1

loop_
  _symmetry_equiv_pos_as_xyz
  'x, y, z'

loop_
  _atom_site_label
  _atom_site_occupancy
  _atom_site_fract_x
  _atom_site_fract_y
  _atom_site_fract_z
  _atom_site_thermal_displace_type
  _atom_site_B_iso_or_equiv
  _atom_site_type_symbol
  Nb1      1.0000 0.96958  0.94743  0.49997  Biso   1.000  Nb
  Nb2      1.0000 0.36303  0.71916  0.49996  Biso   1.000  Nb
  P1       1.0000 0.66516  0.33173  0.43893  Biso   1.000  P
  P2       1.0000 0.66768  0.33508  0.56068  Biso   1.000  P
  Se1      1.0000 0.31155  0.98124  0.40486  Biso   1.000  Se
  Se2      1.0000 0.03222  0.33300  0.41764  Biso   1.000  Se
  Se3      1.0000 0.66349  0.68270  0.40453  Biso   1.000  Se
  Se4      1.0000 0.02139  0.68345  0.59518  Biso   1.000  Se
  Se5      1.0000 0.30124  0.33366  0.58251  Biso   1.000  Se
  Se6      1.0000 0.67135  0.98594  0.59546  Biso   1.000  Se
