data_image0
_cell_length_a       5.82476
_cell_length_b       5.82801
_cell_length_c       18.4116
_cell_angle_alpha    90
_cell_angle_beta     90
_cell_angle_gamma    119.982

_symmetry_space_group_name_H-M    "P 1"
_symmetry_int_tables_number       1

loop_
  _symmetry_equiv_pos_as_xyz
  'x, y, z'

loop_
  _atom_site_label
  _atom_site_occupancy
  _atom_site_fract_x
  _atom_site_fract_y
  _atom_site_fract_z
  _atom_site_thermal_displace_type
  _atom_site_B_iso_or_equiv
  _atom_site_type_symbol
  Nb1      1.0000 0.99990  0.99975  0.49998  Biso   1.000  Nb
  Nb2      1.0000 0.33344  0.66693  0.50001  Biso   1.000  Nb
  P1       1.0000 0.66674  0.33335  0.43890  Biso   1.000  P
  P2       1.0000 0.66660  0.33332  0.56114  Biso   1.000  P
  S1       1.0000 0.32721  0.99379  0.40833  Biso   1.000  S
  S2       1.0000 0.00641  0.33338  0.40836  Biso   1.000  S
  S3       1.0000 0.66656  0.67279  0.40834  Biso   1.000  S
  S4       1.0000 0.00619  0.67294  0.59167  Biso   1.000  S
  S5       1.0000 0.32689  0.33332  0.59164  Biso   1.000  S
  S6       1.0000 0.66676  0.99383  0.59166  Biso   1.000  S
