data_image0
_cell_length_a       6.76682
_cell_length_b       6.46685
_cell_length_c       18.9101
_cell_angle_alpha    90
_cell_angle_beta     90
_cell_angle_gamma    121.547

_symmetry_space_group_name_H-M    "P 1"
_symmetry_int_tables_number       1

loop_
  _symmetry_equiv_pos_as_xyz
  'x, y, z'

loop_
  _atom_site_label
  _atom_site_occupancy
  _atom_site_fract_x
  _atom_site_fract_y
  _atom_site_fract_z
  _atom_site_thermal_displace_type
  _atom_site_B_iso_or_equiv
  _atom_site_type_symbol
  Nb1      1.0000 0.96147  0.90974  0.49563  Biso   1.000  Nb
  Nb2      1.0000 0.37183  0.75692  0.50438  Biso   1.000  Nb
  P1       1.0000 0.73811  0.46274  0.45357  Biso   1.000  P
  P2       1.0000 0.59542  0.20409  0.54634  Biso   1.000  P
  Te1      1.0000 0.31765  0.03390  0.39935  Biso   1.000  Te
  Te2      1.0000 0.03223  0.34624  0.41699  Biso   1.000  Te
  Te3      1.0000 0.63111  0.75787  0.38682  Biso   1.000  Te
  Te4      1.0000 0.01548  0.63259  0.60067  Biso   1.000  Te
  Te5      1.0000 0.30126  0.32049  0.58300  Biso   1.000  Te
  Te6      1.0000 0.70215  0.90883  0.61320  Biso   1.000  Te
