data_image0
_cell_length_a       3.24051
_cell_length_b       3.24051
_cell_length_c       20.7238
_cell_angle_alpha    90
_cell_angle_beta     90
_cell_angle_gamma    120

_symmetry_space_group_name_H-M    "P 1"
_symmetry_int_tables_number       1

loop_
  _symmetry_equiv_pos_as_xyz
  'x, y, z'

loop_
  _atom_site_label
  _atom_site_occupancy
  _atom_site_fract_x
  _atom_site_fract_y
  _atom_site_fract_z
  _atom_site_thermal_displace_type
  _atom_site_B_iso_or_equiv
  _atom_site_type_symbol
  Nb1      1.0000 0.33336  0.66669  0.56447  Biso   1.000  Nb
  S1       1.0000 0.66668  0.33338  0.36190  Biso   1.000  S
  S2       1.0000 0.00002  0.00002  0.63810  Biso   1.000  S
  Nb2      1.0000 0.33343  0.66689  0.43553  Biso   1.000  Nb
