data_image0
_cell_length_a       3.32867
_cell_length_b       3.32873
_cell_length_c       20.9841
_cell_angle_alpha    90
_cell_angle_beta     90
_cell_angle_gamma    119.999

_symmetry_space_group_name_H-M    "P 1"
_symmetry_int_tables_number       1

loop_
  _symmetry_equiv_pos_as_xyz
  'x, y, z'

loop_
  _atom_site_label
  _atom_site_occupancy
  _atom_site_fract_x
  _atom_site_fract_y
  _atom_site_fract_z
  _atom_site_thermal_displace_type
  _atom_site_B_iso_or_equiv
  _atom_site_type_symbol
  Nb1      1.0000 0.33332  0.66664  0.56317  Biso   1.000  Nb
  Se1      1.0000 0.66678  0.33350  0.35732  Biso   1.000  Se
  Se2      1.0000 0.99997  0.00000  0.64268  Biso   1.000  Se
  Nb2      1.0000 0.33340  0.66681  0.43683  Biso   1.000  Nb
