data_image0
_cell_length_a       4.944
_cell_length_b       3.35027
_cell_length_c       20.896
_cell_angle_alpha    90
_cell_angle_beta     90
_cell_angle_gamma    90

_symmetry_space_group_name_H-M    "P 1"
_symmetry_int_tables_number       1

loop_
  _symmetry_equiv_pos_as_xyz
  'x, y, z'

loop_
  _atom_site_label
  _atom_site_occupancy
  _atom_site_fract_x
  _atom_site_fract_y
  _atom_site_fract_z
  _atom_site_thermal_displace_type
  _atom_site_B_iso_or_equiv
  _atom_site_type_symbol
  Nb1      1.0000 0.63159  0.25000  0.56784  Biso   1.000  Nb
  Nb2      1.0000 0.13163  0.75000  0.43216  Biso   1.000  Nb
  S1       1.0000 0.13162  0.25000  0.52262  Biso   1.000  S
  S2       1.0000 0.63160  0.75000  0.47738  Biso   1.000  S
  S3       1.0000 0.35080  0.25000  0.35756  Biso   1.000  S
  S4       1.0000 0.41242  0.75000  0.64244  Biso   1.000  S
  S5       1.0000 0.91239  0.25000  0.35756  Biso   1.000  S
  S6       1.0000 0.85083  0.75000  0.64244  Biso   1.000  S
