data_image0
_cell_length_a       3.89513
_cell_length_b       3.89746
_cell_length_c       17.8273
_cell_angle_alpha    90
_cell_angle_beta     90
_cell_angle_gamma    90

_symmetry_space_group_name_H-M    "P 1"
_symmetry_int_tables_number       1

loop_
  _symmetry_equiv_pos_as_xyz
  'x, y, z'

loop_
  _atom_site_label
  _atom_site_occupancy
  _atom_site_fract_x
  _atom_site_fract_y
  _atom_site_fract_z
  _atom_site_thermal_displace_type
  _atom_site_B_iso_or_equiv
  _atom_site_type_symbol
  Nb1      1.0000 0.00000  0.00004  0.50000  Biso   1.000  Nb
  Se1      1.0000 1.00000  0.50059  0.60402  Biso   1.000  Se
  Nb2      1.0000 0.50000  0.49986  0.50001  Biso   1.000  Nb
  Se2      1.0000 0.00000  0.49930  0.39598  Biso   1.000  Se
