data_image0
_cell_length_a       5.94177
_cell_length_b       3.69367
_cell_length_c       21.7248
_cell_angle_alpha    90
_cell_angle_beta     90
_cell_angle_gamma    90

_symmetry_space_group_name_H-M    "P 1"
_symmetry_int_tables_number       1

loop_
  _symmetry_equiv_pos_as_xyz
  'x, y, z'

loop_
  _atom_site_label
  _atom_site_occupancy
  _atom_site_fract_x
  _atom_site_fract_y
  _atom_site_fract_z
  _atom_site_thermal_displace_type
  _atom_site_B_iso_or_equiv
  _atom_site_type_symbol
  Nb1      1.0000 0.63169  0.25000  0.57808  Biso   1.000  Nb
  Nb2      1.0000 0.13153  0.75000  0.42192  Biso   1.000  Nb
  Te1      1.0000 0.13159  0.25000  0.52273  Biso   1.000  Te
  Te2      1.0000 0.63163  0.75000  0.47727  Biso   1.000  Te
  Te3      1.0000 0.37323  0.25000  0.34596  Biso   1.000  Te
  Te4      1.0000 0.38999  0.75000  0.65404  Biso   1.000  Te
  Te5      1.0000 0.88985  0.25000  0.34595  Biso   1.000  Te
  Te6      1.0000 0.87338  0.75000  0.65405  Biso   1.000  Te
