data_image0
_cell_length_a       4.20965
_cell_length_b       4.21022
_cell_length_c       18.8558
_cell_angle_alpha    90
_cell_angle_beta     90
_cell_angle_gamma    119.996

_symmetry_space_group_name_H-M    "P 1"
_symmetry_int_tables_number       1

loop_
  _symmetry_equiv_pos_as_xyz
  'x, y, z'

loop_
  _atom_site_label
  _atom_site_occupancy
  _atom_site_fract_x
  _atom_site_fract_y
  _atom_site_fract_z
  _atom_site_thermal_displace_type
  _atom_site_B_iso_or_equiv
  _atom_site_type_symbol
  Te1      1.0000 0.00001  0.00002  0.38857  Biso   1.000  Te
  Te2      1.0000 0.33333  0.66664  0.61150  Biso   1.000  Te
  Nb1      1.0000 1.00000  0.00003  0.54025  Biso   1.000  Nb
  Nb2      1.0000 0.33334  0.66663  0.45983  Biso   1.000  Nb
