data_image0
_cell_length_a       3.49398
_cell_length_b       3.49398
_cell_length_c       21.2989
_cell_angle_alpha    90
_cell_angle_beta     90
_cell_angle_gamma    120

_symmetry_space_group_name_H-M    "P 1"
_symmetry_int_tables_number       1

loop_
  _symmetry_equiv_pos_as_xyz
  'x, y, z'

loop_
  _atom_site_label
  _atom_site_occupancy
  _atom_site_fract_x
  _atom_site_fract_y
  _atom_site_fract_z
  _atom_site_thermal_displace_type
  _atom_site_B_iso_or_equiv
  _atom_site_type_symbol
  Nb1      1.0000 0.33324  0.66659  0.56052  Biso   1.000  Nb
  Te1      1.0000 0.66672  0.33336  0.35213  Biso   1.000  Te
  Te2      1.0000 0.99997  0.00002  0.64787  Biso   1.000  Te
  Nb2      1.0000 0.33351  0.66691  0.43947  Biso   1.000  Nb
