data_image0
_cell_length_a       3.15313
_cell_length_b       3.15313
_cell_length_c       25.2989
_cell_angle_alpha    90
_cell_angle_beta     90
_cell_angle_gamma    120

_symmetry_space_group_name_H-M    "P 1"
_symmetry_int_tables_number       1

loop_
  _symmetry_equiv_pos_as_xyz
  'x, y, z'

loop_
  _atom_site_label
  _atom_site_occupancy
  _atom_site_fract_x
  _atom_site_fract_y
  _atom_site_fract_z
  _atom_site_thermal_displace_type
  _atom_site_B_iso_or_equiv
  _atom_site_type_symbol
  Nb1      1.0000 0.33333  0.66667  0.44681  Biso   1.000  Nb
  Nb2      1.0000 0.66667  0.33333  0.55325  Biso   1.000  Nb
  Nb3      1.0000 0.00000  0.00000  0.35204  Biso   1.000  Nb
  Nb4      1.0000 0.00000  0.00000  0.64801  Biso   1.000  Nb
  C1       1.0000 0.00000  0.00000  0.50003  Biso   1.000  C
  C2       1.0000 0.66667  0.33333  0.39656  Biso   1.000  C
  C3       1.0000 0.33333  0.66667  0.60350  Biso   1.000  C
  F1       1.0000 0.66667  0.33333  0.70382  Biso   1.000  F
  F2       1.0000 0.33333  0.66667  0.29624  Biso   1.000  F
