data_image0
_cell_length_a       3.14236
_cell_length_b       3.14236
_cell_length_c       24.4615
_cell_angle_alpha    90
_cell_angle_beta     90
_cell_angle_gamma    120

_symmetry_space_group_name_H-M    "P 1"
_symmetry_int_tables_number       1

loop_
  _symmetry_equiv_pos_as_xyz
  'x, y, z'

loop_
  _atom_site_label
  _atom_site_occupancy
  _atom_site_fract_x
  _atom_site_fract_y
  _atom_site_fract_z
  _atom_site_thermal_displace_type
  _atom_site_B_iso_or_equiv
  _atom_site_type_symbol
  Nb1      1.0000 0.33333  0.66667  0.44422  Biso   1.000  Nb
  Nb2      1.0000 0.66667  0.33333  0.55561  Biso   1.000  Nb
  Nb3      1.0000 0.00000  0.00000  0.34834  Biso   1.000  Nb
  Nb4      1.0000 0.00000  0.00000  0.65152  Biso   1.000  Nb
  N1       1.0000 0.00000  0.00000  0.49991  Biso   1.000  N
  N2       1.0000 0.66667  0.33333  0.39590  Biso   1.000  N
  N3       1.0000 0.33333  0.66667  0.60393  Biso   1.000  N
  O1       1.0000 0.66667  0.33333  0.69442  Biso   1.000  O
  O2       1.0000 0.33333  0.66667  0.30544  Biso   1.000  O
