data_image0
_cell_length_a       6.16707
_cell_length_b       6.13312
_cell_length_c       18.4419
_cell_angle_alpha    90
_cell_angle_beta     90
_cell_angle_gamma    119.664

_symmetry_space_group_name_H-M    "P 1"
_symmetry_int_tables_number       1

loop_
  _symmetry_equiv_pos_as_xyz
  'x, y, z'

loop_
  _atom_site_label
  _atom_site_occupancy
  _atom_site_fract_x
  _atom_site_fract_y
  _atom_site_fract_z
  _atom_site_thermal_displace_type
  _atom_site_B_iso_or_equiv
  _atom_site_type_symbol
  Nb1      1.0000 0.94899  0.94393  0.51406  Biso   1.000  Nb
  Nb2      1.0000 0.93270  0.43562  0.48595  Biso   1.000  Nb
  Nb3      1.0000 0.44062  0.40164  0.49999  Biso   1.000  Nb
  Nb4      1.0000 0.44112  0.97793  0.50000  Biso   1.000  Nb
  O1       1.0000 0.22541  0.08234  0.43658  Biso   1.000  O
  O2       1.0000 0.65636  0.29722  0.56342  Biso   1.000  O
  O3       1.0000 0.77724  0.62018  0.44552  Biso   1.000  O
  O4       1.0000 0.10451  0.75944  0.55448  Biso   1.000  O
  O5       1.0000 0.10413  0.28329  0.55460  Biso   1.000  O
  O6       1.0000 0.77761  0.09624  0.44540  Biso   1.000  O
  O7       1.0000 0.61700  0.77787  0.55456  Biso   1.000  O
  O8       1.0000 0.26468  0.60163  0.44543  Biso   1.000  O
