data_image0
_cell_length_a       6.38391
_cell_length_b       6.38391
_cell_length_c       17.9149
_cell_angle_alpha    90
_cell_angle_beta     90
_cell_angle_gamma    120

_symmetry_space_group_name_H-M    "P 1"
_symmetry_int_tables_number       1

loop_
  _symmetry_equiv_pos_as_xyz
  'x, y, z'

loop_
  _atom_site_label
  _atom_site_occupancy
  _atom_site_fract_x
  _atom_site_fract_y
  _atom_site_fract_z
  _atom_site_thermal_displace_type
  _atom_site_B_iso_or_equiv
  _atom_site_type_symbol
  Ni1      1.0000 0.66667  0.33333  0.50003  Biso   1.000  Ni
  Ni2      1.0000 0.33333  0.66667  0.49997  Biso   1.000  Ni
  Cl1      1.0000 0.50073  0.99996  0.41717  Biso   1.000  Cl
  Cl2      1.0000 0.49922  0.49927  0.41717  Biso   1.000  Cl
  Cl3      1.0000 0.00004  0.50078  0.41717  Biso   1.000  Cl
  Cl4      1.0000 0.50077  0.00004  0.58283  Biso   1.000  Cl
  Cl5      1.0000 0.49927  0.49923  0.58283  Biso   1.000  Cl
  Cl6      1.0000 0.99996  0.50073  0.58283  Biso   1.000  Cl
