data_image0
_cell_length_a       2.81411
_cell_length_b       2.81354
_cell_length_c       18.8558
_cell_angle_alpha    90
_cell_angle_beta     90
_cell_angle_gamma    120.007

_symmetry_space_group_name_H-M    "P 1"
_symmetry_int_tables_number       1

loop_
  _symmetry_equiv_pos_as_xyz
  'x, y, z'

loop_
  _atom_site_label
  _atom_site_occupancy
  _atom_site_fract_x
  _atom_site_fract_y
  _atom_site_fract_z
  _atom_site_thermal_displace_type
  _atom_site_B_iso_or_equiv
  _atom_site_type_symbol
  F1       1.0000 0.99947  0.99955  0.38247  Biso   1.000  F
  F2       1.0000 0.33386  0.66713  0.61761  Biso   1.000  F
  Ni1      1.0000 0.99958  0.99977  0.55435  Biso   1.000  Ni
  Ni2      1.0000 0.33376  0.66691  0.44573  Biso   1.000  Ni
