data_image0
_cell_length_a       2.82552
_cell_length_b       2.82628
_cell_length_c       18.8558
_cell_angle_alpha    90
_cell_angle_beta     90
_cell_angle_gamma    119.991

_symmetry_space_group_name_H-M    "P 1"
_symmetry_int_tables_number       1

loop_
  _symmetry_equiv_pos_as_xyz
  'x, y, z'

loop_
  _atom_site_label
  _atom_site_occupancy
  _atom_site_fract_x
  _atom_site_fract_y
  _atom_site_fract_z
  _atom_site_thermal_displace_type
  _atom_site_B_iso_or_equiv
  _atom_site_type_symbol
  F1       1.0000 0.99934  0.99948  0.38553  Biso   1.000  F
  F2       1.0000 0.33399  0.66719  0.61454  Biso   1.000  F
  Ni1      1.0000 0.99934  0.99985  0.55036  Biso   1.000  Ni
  Ni2      1.0000 0.33399  0.66682  0.44971  Biso   1.000  Ni
