data_image0
_cell_length_a       3.99009
_cell_length_b       3.99076
_cell_length_c       18.8558
_cell_angle_alpha    90
_cell_angle_beta     90
_cell_angle_gamma    119.994

_symmetry_space_group_name_H-M    "P 1"
_symmetry_int_tables_number       1

loop_
  _symmetry_equiv_pos_as_xyz
  'x, y, z'

loop_
  _atom_site_label
  _atom_site_occupancy
  _atom_site_fract_x
  _atom_site_fract_y
  _atom_site_fract_z
  _atom_site_thermal_displace_type
  _atom_site_B_iso_or_equiv
  _atom_site_type_symbol
  I1       1.0000 0.00004  0.00004  0.39831  Biso   1.000  I
  I2       1.0000 0.33330  0.66663  0.60176  Biso   1.000  I
  Ni1      1.0000 0.99992  0.00007  0.53598  Biso   1.000  Ni
  Ni2      1.0000 0.33342  0.66660  0.46408  Biso   1.000  Ni
