data_image0
_cell_length_a       3.8173
_cell_length_b       3.01834
_cell_length_c       21.2095
_cell_angle_alpha    90
_cell_angle_beta     90
_cell_angle_gamma    90

_symmetry_space_group_name_H-M    "P 1"
_symmetry_int_tables_number       1

loop_
  _symmetry_equiv_pos_as_xyz
  'x, y, z'

loop_
  _atom_site_label
  _atom_site_occupancy
  _atom_site_fract_x
  _atom_site_fract_y
  _atom_site_fract_z
  _atom_site_thermal_displace_type
  _atom_site_B_iso_or_equiv
  _atom_site_type_symbol
  Ni1      1.0000 0.67665  0.25000  0.54043  Biso   1.000  Ni
  Ni2      1.0000 0.17666  0.75000  0.45955  Biso   1.000  Ni
  O1       1.0000 0.18014  0.25000  0.52170  Biso   1.000  O
  O2       1.0000 0.68014  0.75000  0.47828  Biso   1.000  O
  O3       1.0000 0.19225  0.25000  0.39832  Biso   1.000  O
  O4       1.0000 0.47643  0.75000  0.64762  Biso   1.000  O
  O5       1.0000 0.97648  0.25000  0.35237  Biso   1.000  O
  O6       1.0000 0.69221  0.75000  0.60166  Biso   1.000  O
