data_image0
_cell_length_a       3.82098
_cell_length_b       3.02203
_cell_length_c       21.2095
_cell_angle_alpha    90
_cell_angle_beta     90
_cell_angle_gamma    90

_symmetry_space_group_name_H-M    "P 1"
_symmetry_int_tables_number       1

loop_
  _symmetry_equiv_pos_as_xyz
  'x, y, z'

loop_
  _atom_site_label
  _atom_site_occupancy
  _atom_site_fract_x
  _atom_site_fract_y
  _atom_site_fract_z
  _atom_site_thermal_displace_type
  _atom_site_B_iso_or_equiv
  _atom_site_type_symbol
  Ni1      1.0000 0.67673  0.25000  0.53990  Biso   1.000  Ni
  Ni2      1.0000 0.17676  0.75000  0.46008  Biso   1.000  Ni
  O1       1.0000 0.17975  0.25000  0.52211  Biso   1.000  O
  O2       1.0000 0.67977  0.75000  0.47787  Biso   1.000  O
  O3       1.0000 0.19238  0.25000  0.39875  Biso   1.000  O
  O4       1.0000 0.47666  0.75000  0.64713  Biso   1.000  O
  O5       1.0000 0.97667  0.25000  0.35285  Biso   1.000  O
  O6       1.0000 0.69235  0.75000  0.60124  Biso   1.000  O
