data_image0
_cell_length_a       5.84296
_cell_length_b       5.84403
_cell_length_c       18.4116
_cell_angle_alpha    90
_cell_angle_beta     90
_cell_angle_gamma    119.994

_symmetry_space_group_name_H-M    "P 1"
_symmetry_int_tables_number       1

loop_
  _symmetry_equiv_pos_as_xyz
  'x, y, z'

loop_
  _atom_site_label
  _atom_site_occupancy
  _atom_site_fract_x
  _atom_site_fract_y
  _atom_site_fract_z
  _atom_site_thermal_displace_type
  _atom_site_B_iso_or_equiv
  _atom_site_type_symbol
  Ni1      1.0000 0.99999  0.99999  0.50001  Biso   1.000  Ni
  Ni2      1.0000 0.33335  0.66669  0.49999  Biso   1.000  Ni
  P1       1.0000 0.66675  0.33332  0.44088  Biso   1.000  P
  P2       1.0000 0.66659  0.33336  0.55912  Biso   1.000  P
  S1       1.0000 0.32149  0.98809  0.41699  Biso   1.000  S
  S2       1.0000 0.01197  0.33325  0.41697  Biso   1.000  S
  S3       1.0000 0.66671  0.67850  0.41698  Biso   1.000  S
  S4       1.0000 0.01185  0.67859  0.58301  Biso   1.000  S
  S5       1.0000 0.32137  0.33343  0.58304  Biso   1.000  S
  S6       1.0000 0.66663  0.98818  0.58303  Biso   1.000  S
