data_image0
_cell_length_a       6.71572
_cell_length_b       6.71721
_cell_length_c       18.4116
_cell_angle_alpha    90
_cell_angle_beta     90
_cell_angle_gamma    119.993

_symmetry_space_group_name_H-M    "P 1"
_symmetry_int_tables_number       1

loop_
  _symmetry_equiv_pos_as_xyz
  'x, y, z'

loop_
  _atom_site_label
  _atom_site_occupancy
  _atom_site_fract_x
  _atom_site_fract_y
  _atom_site_fract_z
  _atom_site_thermal_displace_type
  _atom_site_B_iso_or_equiv
  _atom_site_type_symbol
  Ni1      1.0000 0.00003  0.00002  0.50005  Biso   1.000  Ni
  Ni2      1.0000 0.33331  0.66666  0.49992  Biso   1.000  Ni
  P1       1.0000 0.66668  0.33336  0.43847  Biso   1.000  P
  P2       1.0000 0.66666  0.33332  0.56164  Biso   1.000  P
  Te1      1.0000 0.28282  0.94966  0.41504  Biso   1.000  Te
  Te2      1.0000 0.05026  0.33307  0.41503  Biso   1.000  Te
  Te3      1.0000 0.66680  0.71713  0.41503  Biso   1.000  Te
  Te4      1.0000 0.05065  0.71716  0.58495  Biso   1.000  Te
  Te5      1.0000 0.28295  0.33360  0.58496  Biso   1.000  Te
  Te6      1.0000 0.66655  0.94943  0.58496  Biso   1.000  Te
