data_image0
_cell_length_a       5.83834
_cell_length_b       5.83939
_cell_length_c       18.4116
_cell_angle_alpha    90
_cell_angle_beta     90
_cell_angle_gamma    119.994

_symmetry_space_group_name_H-M    "P 1"
_symmetry_int_tables_number       1

loop_
  _symmetry_equiv_pos_as_xyz
  'x, y, z'

loop_
  _atom_site_label
  _atom_site_occupancy
  _atom_site_fract_x
  _atom_site_fract_y
  _atom_site_fract_z
  _atom_site_thermal_displace_type
  _atom_site_B_iso_or_equiv
  _atom_site_type_symbol
  Ni1      1.0000 0.99999  0.99999  0.50001  Biso   1.000  Ni
  Ni2      1.0000 0.33335  0.66669  0.50000  Biso   1.000  Ni
  P1       1.0000 0.66674  0.33332  0.44066  Biso   1.000  P
  P2       1.0000 0.66660  0.33336  0.55935  Biso   1.000  P
  S1       1.0000 0.32194  0.98853  0.41763  Biso   1.000  S
  S2       1.0000 0.01153  0.33326  0.41761  Biso   1.000  S
  S3       1.0000 0.66670  0.67805  0.41761  Biso   1.000  S
  S4       1.0000 0.01140  0.67815  0.58238  Biso   1.000  S
  S5       1.0000 0.32181  0.33342  0.58240  Biso   1.000  S
  S6       1.0000 0.66664  0.98863  0.58239  Biso   1.000  S
