data_image0
_cell_length_a       4.59614
_cell_length_b       3.35932
_cell_length_c       22.4666
_cell_angle_alpha    90
_cell_angle_beta     90
_cell_angle_gamma    90

_symmetry_space_group_name_H-M    "P 1"
_symmetry_int_tables_number       1

loop_
  _symmetry_equiv_pos_as_xyz
  'x, y, z'

loop_
  _atom_site_label
  _atom_site_occupancy
  _atom_site_fract_x
  _atom_site_fract_y
  _atom_site_fract_z
  _atom_site_thermal_displace_type
  _atom_site_B_iso_or_equiv
  _atom_site_type_symbol
  Ni1      1.0000 0.25176  0.27825  0.54455  Biso   1.000  Ni
  Ni2      1.0000 0.75160  0.77825  0.45545  Biso   1.000  Ni
  S1       1.0000 0.75268  0.27823  0.52462  Biso   1.000  S
  S2       1.0000 0.25069  0.77821  0.47538  Biso   1.000  S
  S3       1.0000 0.07283  0.27869  0.33312  Biso   1.000  S
  S4       1.0000 0.93052  0.77894  0.66688  Biso   1.000  S
  S5       1.0000 0.73259  0.27840  0.38526  Biso   1.000  S
  S6       1.0000 0.27077  0.77842  0.61474  Biso   1.000  S
