data_image0
_cell_length_a       3.7626
_cell_length_b       3.7626
_cell_length_c       18.6343
_cell_angle_alpha    90
_cell_angle_beta     90
_cell_angle_gamma    120

_symmetry_space_group_name_H-M    "P 1"
_symmetry_int_tables_number       1

loop_
  _symmetry_equiv_pos_as_xyz
  'x, y, z'

loop_
  _atom_site_label
  _atom_site_occupancy
  _atom_site_fract_x
  _atom_site_fract_y
  _atom_site_fract_z
  _atom_site_thermal_displace_type
  _atom_site_B_iso_or_equiv
  _atom_site_type_symbol
  Ni1      1.0000 0.33379  0.66763  0.56201  Biso   1.000  Ni
  Se1      1.0000 0.66713  0.33413  0.40248  Biso   1.000  Se
  Se2      1.0000 0.00041  0.00094  0.59752  Biso   1.000  Se
  Ni2      1.0000 0.33382  0.66759  0.43799  Biso   1.000  Ni
