data_image0
_cell_length_a       3.58589
_cell_length_b       3.58629
_cell_length_c       18.4217
_cell_angle_alpha    90
_cell_angle_beta     90
_cell_angle_gamma    119.996

_symmetry_space_group_name_H-M    "P 1"
_symmetry_int_tables_number       1

loop_
  _symmetry_equiv_pos_as_xyz
  'x, y, z'

loop_
  _atom_site_label
  _atom_site_occupancy
  _atom_site_fract_x
  _atom_site_fract_y
  _atom_site_fract_z
  _atom_site_thermal_displace_type
  _atom_site_B_iso_or_equiv
  _atom_site_type_symbol
  Ni1      1.0000 0.33348  0.66713  0.56412  Biso   1.000  Ni
  S1       1.0000 0.66691  0.33360  0.40710  Biso   1.000  S
  S2       1.0000 0.00016  0.00056  0.59290  Biso   1.000  S
  Ni2      1.0000 0.33352  0.66687  0.43588  Biso   1.000  Ni
