data_image0
_cell_length_a       3.58707
_cell_length_b       3.58757
_cell_length_c       18.4217
_cell_angle_alpha    90
_cell_angle_beta     90
_cell_angle_gamma    119.995

_symmetry_space_group_name_H-M    "P 1"
_symmetry_int_tables_number       1

loop_
  _symmetry_equiv_pos_as_xyz
  'x, y, z'

loop_
  _atom_site_label
  _atom_site_occupancy
  _atom_site_fract_x
  _atom_site_fract_y
  _atom_site_fract_z
  _atom_site_thermal_displace_type
  _atom_site_B_iso_or_equiv
  _atom_site_type_symbol
  Ni1      1.0000 0.33350  0.66714  0.56428  Biso   1.000  Ni
  S1       1.0000 0.66687  0.33348  0.40711  Biso   1.000  S
  S2       1.0000 0.00014  0.00055  0.59289  Biso   1.000  S
  Ni2      1.0000 0.33356  0.66700  0.43572  Biso   1.000  Ni
