data_image0
_cell_length_a       5.50937
_cell_length_b       5.70369
_cell_length_c       16.3933
_cell_angle_alpha    90
_cell_angle_beta     90
_cell_angle_gamma    90

_symmetry_space_group_name_H-M    "P 1"
_symmetry_int_tables_number       1

loop_
  _symmetry_equiv_pos_as_xyz
  'x, y, z'

loop_
  _atom_site_label
  _atom_site_occupancy
  _atom_site_fract_x
  _atom_site_fract_y
  _atom_site_fract_z
  _atom_site_thermal_displace_type
  _atom_site_B_iso_or_equiv
  _atom_site_type_symbol
  Ni1      1.0000 0.50000  0.00000  0.50000  Biso   1.000  Ni
  Ni2      1.0000 1.00000  0.50000  0.50000  Biso   1.000  Ni
  Se1      1.0000 0.12260  0.13233  0.45806  Biso   1.000  Se
  Se2      1.0000 0.62260  0.36767  0.54194  Biso   1.000  Se
  Se3      1.0000 0.87740  0.86767  0.54194  Biso   1.000  Se
  Se4      1.0000 0.37740  0.63233  0.45806  Biso   1.000  Se
