data_image0
_cell_length_a       5.07646
_cell_length_b       3.4048
_cell_length_c       22.403
_cell_angle_alpha    90
_cell_angle_beta     90
_cell_angle_gamma    90

_symmetry_space_group_name_H-M    "P 1"
_symmetry_int_tables_number       1

loop_
  _symmetry_equiv_pos_as_xyz
  'x, y, z'

loop_
  _atom_site_label
  _atom_site_occupancy
  _atom_site_fract_x
  _atom_site_fract_y
  _atom_site_fract_z
  _atom_site_thermal_displace_type
  _atom_site_B_iso_or_equiv
  _atom_site_type_symbol
  Ni1      1.0000 0.63094  0.25000  0.54436  Biso   1.000  Ni
  Ni2      1.0000 0.13243  0.75000  0.45554  Biso   1.000  Ni
  Se1      1.0000 0.13245  0.25000  0.52901  Biso   1.000  Se
  Se2      1.0000 0.63125  0.75000  0.47090  Biso   1.000  Se
  Se3      1.0000 0.14088  0.25000  0.37970  Biso   1.000  Se
  Se4      1.0000 0.62199  0.75000  0.62019  Biso   1.000  Se
  Se5      1.0000 0.72206  0.25000  0.33826  Biso   1.000  Se
  Se6      1.0000 0.04093  0.75000  0.66155  Biso   1.000  Se
