data_image0
_cell_length_a       6.59436
_cell_length_b       3.71125
_cell_length_c       21.3514
_cell_angle_alpha    90
_cell_angle_beta     90
_cell_angle_gamma    90

_symmetry_space_group_name_H-M    "P 1"
_symmetry_int_tables_number       1

loop_
  _symmetry_equiv_pos_as_xyz
  'x, y, z'

loop_
  _atom_site_label
  _atom_site_occupancy
  _atom_site_fract_x
  _atom_site_fract_y
  _atom_site_fract_z
  _atom_site_thermal_displace_type
  _atom_site_B_iso_or_equiv
  _atom_site_type_symbol
  Ni1      1.0000 0.41595  0.25001  0.57329  Biso   1.000  Ni
  Ni2      1.0000 0.34733  0.75001  0.42667  Biso   1.000  Ni
  Te1      1.0000 0.14962  0.24999  0.47846  Biso   1.000  Te
  Te2      1.0000 0.61374  0.74999  0.52148  Biso   1.000  Te
  Te3      1.0000 0.48129  0.24999  0.35904  Biso   1.000  Te
  Te4      1.0000 0.28207  0.74999  0.64091  Biso   1.000  Te
  Te5      1.0000 0.90938  0.25000  0.35957  Biso   1.000  Te
  Te6      1.0000 0.85398  0.75000  0.64039  Biso   1.000  Te
