data_image0
_cell_length_a       4.0679
_cell_length_b       4.0679
_cell_length_c       18.5878
_cell_angle_alpha    90
_cell_angle_beta     90
_cell_angle_gamma    120

_symmetry_space_group_name_H-M    "P 1"
_symmetry_int_tables_number       1

loop_
  _symmetry_equiv_pos_as_xyz
  'x, y, z'

loop_
  _atom_site_label
  _atom_site_occupancy
  _atom_site_fract_x
  _atom_site_fract_y
  _atom_site_fract_z
  _atom_site_thermal_displace_type
  _atom_site_B_iso_or_equiv
  _atom_site_type_symbol
  Ni1      1.0000 0.33357  0.66716  0.56118  Biso   1.000  Ni
  Te1      1.0000 0.66721  0.33428  0.40349  Biso   1.000  Te
  Te2      1.0000 0.00023  0.00061  0.59651  Biso   1.000  Te
  Ni2      1.0000 0.33376  0.66748  0.43882  Biso   1.000  Ni
