data_image0
_cell_length_a       2.73947
_cell_length_b       2.73947
_cell_length_c       18.8558
_cell_angle_alpha    90
_cell_angle_beta     90
_cell_angle_gamma    119.992

_symmetry_space_group_name_H-M    "P 1"
_symmetry_int_tables_number       1

loop_
  _symmetry_equiv_pos_as_xyz
  'x, y, z'

loop_
  _atom_site_label
  _atom_site_occupancy
  _atom_site_fract_x
  _atom_site_fract_y
  _atom_site_fract_z
  _atom_site_thermal_displace_type
  _atom_site_B_iso_or_equiv
  _atom_site_type_symbol
  F1       1.0000 0.66094  0.32759  0.34313  Biso   1.000  F
  F2       1.0000 0.99259  0.99467  0.65220  Biso   1.000  F
  Os1      1.0000 0.99323  0.99446  0.55280  Biso   1.000  Os
  Os2      1.0000 0.66022  0.32768  0.44254  Biso   1.000  Os
