data_image0
_cell_length_a       3.66047
_cell_length_b       3.66013
_cell_length_c       18.8558
_cell_angle_alpha    90
_cell_angle_beta     90
_cell_angle_gamma    120.003

_symmetry_space_group_name_H-M    "P 1"
_symmetry_int_tables_number       1

loop_
  _symmetry_equiv_pos_as_xyz
  'x, y, z'

loop_
  _atom_site_label
  _atom_site_occupancy
  _atom_site_fract_x
  _atom_site_fract_y
  _atom_site_fract_z
  _atom_site_thermal_displace_type
  _atom_site_B_iso_or_equiv
  _atom_site_type_symbol
  I1       1.0000 0.99983  0.00024  0.35638  Biso   1.000  I
  I2       1.0000 0.33351  0.66643  0.64365  Biso   1.000  I
  Os1      1.0000 0.99993  0.00003  0.53256  Biso   1.000  Os
  Os2      1.0000 0.33340  0.66664  0.46754  Biso   1.000  Os
