data_image0
_cell_length_a       6.92078
_cell_length_b       6.92196
_cell_length_c       18.4116
_cell_angle_alpha    90
_cell_angle_beta     90
_cell_angle_gamma    119.994

_symmetry_space_group_name_H-M    "P 1"
_symmetry_int_tables_number       1

loop_
  _symmetry_equiv_pos_as_xyz
  'x, y, z'

loop_
  _atom_site_label
  _atom_site_occupancy
  _atom_site_fract_x
  _atom_site_fract_y
  _atom_site_fract_z
  _atom_site_thermal_displace_type
  _atom_site_B_iso_or_equiv
  _atom_site_type_symbol
  Os1      1.0000 0.00000  0.00000  0.50003  Biso   1.000  Os
  Os2      1.0000 0.33334  0.66667  0.49996  Biso   1.000  Os
  P1       1.0000 0.66668  0.33335  0.44167  Biso   1.000  P
  P2       1.0000 0.66666  0.33333  0.55839  Biso   1.000  P
  Te1      1.0000 0.29231  0.95900  0.41713  Biso   1.000  Te
  Te2      1.0000 0.04096  0.33328  0.41713  Biso   1.000  Te
  Te3      1.0000 0.66668  0.70767  0.41713  Biso   1.000  Te
  Te4      1.0000 0.04108  0.70776  0.58286  Biso   1.000  Te
  Te5      1.0000 0.29230  0.33337  0.58286  Biso   1.000  Te
  Te6      1.0000 0.66669  0.95896  0.58286  Biso   1.000  Te
