data_image0
_cell_length_a       3.52198
_cell_length_b       5.53693
_cell_length_c       17.4546
_cell_angle_alpha    90
_cell_angle_beta     90
_cell_angle_gamma    90

_symmetry_space_group_name_H-M    "P 1"
_symmetry_int_tables_number       1

loop_
  _symmetry_equiv_pos_as_xyz
  'x, y, z'

loop_
  _atom_site_label
  _atom_site_occupancy
  _atom_site_fract_x
  _atom_site_fract_y
  _atom_site_fract_z
  _atom_site_thermal_displace_type
  _atom_site_B_iso_or_equiv
  _atom_site_type_symbol
  Os1      1.0000 0.00000  0.04811  0.50110  Biso   1.000  Os
  S1       1.0000 0.50000  0.15378  0.58859  Biso   1.000  S
  S2       1.0000 0.00000  0.34622  0.41141  Biso   1.000  S
  Os2      1.0000 0.50000  0.45189  0.49890  Biso   1.000  Os
  S3       1.0000 0.00000  0.65519  0.56540  Biso   1.000  S
  S4       1.0000 0.50000  0.84481  0.43460  Biso   1.000  S
