data_image0
_cell_length_a       2.8369
_cell_length_b       4.49114
_cell_length_c       17.4789
_cell_angle_alpha    90
_cell_angle_beta     90
_cell_angle_gamma    90

_symmetry_space_group_name_H-M    "P 1"
_symmetry_int_tables_number       1

loop_
  _symmetry_equiv_pos_as_xyz
  'x, y, z'

loop_
  _atom_site_label
  _atom_site_occupancy
  _atom_site_fract_x
  _atom_site_fract_y
  _atom_site_fract_z
  _atom_site_thermal_displace_type
  _atom_site_B_iso_or_equiv
  _atom_site_type_symbol
  Os1      1.0000 0.00000  0.01940  0.48581  Biso   1.000  Os
  S1       1.0000 0.00000  0.30725  0.60242  Biso   1.000  S
  Os2      1.0000 0.50000  0.51948  0.51310  Biso   1.000  Os
  S2       1.0000 0.00000  0.65409  0.39918  Biso   1.000  S
