data_image0
_cell_length_a       5.50111
_cell_length_b       3.51642
_cell_length_c       21.1254
_cell_angle_alpha    90
_cell_angle_beta     90
_cell_angle_gamma    90

_symmetry_space_group_name_H-M    "P 1"
_symmetry_int_tables_number       1

loop_
  _symmetry_equiv_pos_as_xyz
  'x, y, z'

loop_
  _atom_site_label
  _atom_site_occupancy
  _atom_site_fract_x
  _atom_site_fract_y
  _atom_site_fract_z
  _atom_site_thermal_displace_type
  _atom_site_B_iso_or_equiv
  _atom_site_type_symbol
  Os1      1.0000 0.47340  0.25000  0.58163  Biso   1.000  Os
  Os2      1.0000 0.28982  0.75000  0.41837  Biso   1.000  Os
  Se1      1.0000 0.14463  0.25000  0.49625  Biso   1.000  Se
  Se2      1.0000 0.61859  0.75000  0.50376  Biso   1.000  Se
  Se3      1.0000 0.53802  0.25000  0.35840  Biso   1.000  Se
  Se4      1.0000 0.22521  0.75000  0.64160  Biso   1.000  Se
  Se5      1.0000 0.05964  0.25000  0.35569  Biso   1.000  Se
  Se6      1.0000 0.70358  0.75000  0.64431  Biso   1.000  Se
