data_image0
_cell_length_a       3.26622
_cell_length_b       3.2735
_cell_length_c       18.8558
_cell_angle_alpha    90
_cell_angle_beta     90
_cell_angle_gamma    119.926

_symmetry_space_group_name_H-M    "P 1"
_symmetry_int_tables_number       1

loop_
  _symmetry_equiv_pos_as_xyz
  'x, y, z'

loop_
  _atom_site_label
  _atom_site_occupancy
  _atom_site_fract_x
  _atom_site_fract_y
  _atom_site_fract_z
  _atom_site_thermal_displace_type
  _atom_site_B_iso_or_equiv
  _atom_site_type_symbol
  Se1      1.0000 0.00017  0.00052  0.36597  Biso   1.000  Se
  Se2      1.0000 0.33316  0.66615  0.63409  Biso   1.000  Se
  Os1      1.0000 0.00011  0.00015  0.55015  Biso   1.000  Os
  Os2      1.0000 0.33322  0.66652  0.44992  Biso   1.000  Os
