data_image0
_cell_length_a       3.66573
_cell_length_b       5.76314
_cell_length_c       17.7227
_cell_angle_alpha    90
_cell_angle_beta     90
_cell_angle_gamma    90

_symmetry_space_group_name_H-M    "P 1"
_symmetry_int_tables_number       1

loop_
  _symmetry_equiv_pos_as_xyz
  'x, y, z'

loop_
  _atom_site_label
  _atom_site_occupancy
  _atom_site_fract_x
  _atom_site_fract_y
  _atom_site_fract_z
  _atom_site_thermal_displace_type
  _atom_site_B_iso_or_equiv
  _atom_site_type_symbol
  Os1      1.0000 0.00000  0.05261  0.50168  Biso   1.000  Os
  Se1      1.0000 0.50000  0.15343  0.59399  Biso   1.000  Se
  Se2      1.0000 0.00000  0.34657  0.40601  Biso   1.000  Se
  Os2      1.0000 0.50000  0.44739  0.49832  Biso   1.000  Os
  Se3      1.0000 0.00000  0.65531  0.56889  Biso   1.000  Se
  Se4      1.0000 0.50000  0.84469  0.43111  Biso   1.000  Se
