data_image0
_cell_length_a       4.11766
_cell_length_b       4.11766
_cell_length_c       19.2282
_cell_angle_alpha    90
_cell_angle_beta     90
_cell_angle_gamma    120

_symmetry_space_group_name_H-M    "P 1"
_symmetry_int_tables_number       1

loop_
  _symmetry_equiv_pos_as_xyz
  'x, y, z'

loop_
  _atom_site_label
  _atom_site_occupancy
  _atom_site_fract_x
  _atom_site_fract_y
  _atom_site_fract_z
  _atom_site_thermal_displace_type
  _atom_site_B_iso_or_equiv
  _atom_site_type_symbol
  Os1      1.0000 0.33338  0.66675  0.55988  Biso   1.000  Os
  Te1      1.0000 0.66670  0.33335  0.39005  Biso   1.000  Te
  Te2      1.0000 0.99999  0.00003  0.60995  Biso   1.000  Te
  Os2      1.0000 0.33339  0.66678  0.44012  Biso   1.000  Os
