data_image0
_cell_length_a       3.87619
_cell_length_b       6.13257
_cell_length_c       17.9931
_cell_angle_alpha    90
_cell_angle_beta     90
_cell_angle_gamma    90

_symmetry_space_group_name_H-M    "P 1"
_symmetry_int_tables_number       1

loop_
  _symmetry_equiv_pos_as_xyz
  'x, y, z'

loop_
  _atom_site_label
  _atom_site_occupancy
  _atom_site_fract_x
  _atom_site_fract_y
  _atom_site_fract_z
  _atom_site_thermal_displace_type
  _atom_site_B_iso_or_equiv
  _atom_site_type_symbol
  Os1      1.0000 0.00000  0.05718  0.50255  Biso   1.000  Os
  Te1      1.0000 0.50000  0.15328  0.60061  Biso   1.000  Te
  Te2      1.0000 0.00000  0.34672  0.39939  Biso   1.000  Te
  Os2      1.0000 0.50000  0.44282  0.49745  Biso   1.000  Os
  Te3      1.0000 1.00000  0.65483  0.57194  Biso   1.000  Te
  Te4      1.0000 0.50000  0.84517  0.42806  Biso   1.000  Te
