data_image0
_cell_length_a       3.76408
_cell_length_b       3.76499
_cell_length_c       18.8558
_cell_angle_alpha    90
_cell_angle_beta     90
_cell_angle_gamma    119.992

_symmetry_space_group_name_H-M    "P 1"
_symmetry_int_tables_number       1

loop_
  _symmetry_equiv_pos_as_xyz
  'x, y, z'

loop_
  _atom_site_label
  _atom_site_occupancy
  _atom_site_fract_x
  _atom_site_fract_y
  _atom_site_fract_z
  _atom_site_thermal_displace_type
  _atom_site_B_iso_or_equiv
  _atom_site_type_symbol
  Te1      1.0000 0.00005  0.99998  0.37919  Biso   1.000  Te
  Te2      1.0000 0.33329  0.66668  0.62088  Biso   1.000  Te
  Os1      1.0000 0.00001  0.00010  0.53322  Biso   1.000  Os
  Os2      1.0000 0.33333  0.66657  0.46685  Biso   1.000  Os
