data_image0
_cell_length_a       6.17231
_cell_length_b       3.76047
_cell_length_c       21.3444
_cell_angle_alpha    90
_cell_angle_beta     90
_cell_angle_gamma    90

_symmetry_space_group_name_H-M    "P 1"
_symmetry_int_tables_number       1

loop_
  _symmetry_equiv_pos_as_xyz
  'x, y, z'

loop_
  _atom_site_label
  _atom_site_occupancy
  _atom_site_fract_x
  _atom_site_fract_y
  _atom_site_fract_z
  _atom_site_thermal_displace_type
  _atom_site_B_iso_or_equiv
  _atom_site_type_symbol
  Os1      1.0000 0.49846  0.25000  0.58308  Biso   1.000  Os
  Os2      1.0000 0.26476  0.75000  0.41692  Biso   1.000  Os
  Te1      1.0000 0.15606  0.25000  0.50166  Biso   1.000  Te
  Te2      1.0000 0.60716  0.75000  0.49834  Biso   1.000  Te
  Te3      1.0000 0.50159  0.25000  0.35149  Biso   1.000  Te
  Te4      1.0000 0.26163  0.75000  0.64851  Biso   1.000  Te
  Te5      1.0000 0.03357  0.25000  0.35244  Biso   1.000  Te
  Te6      1.0000 0.72965  0.75000  0.64756  Biso   1.000  Te
