data_image0
_cell_length_a       6.65129
_cell_length_b       6.65115
_cell_length_c       16.6077
_cell_angle_alpha    90
_cell_angle_beta     90
_cell_angle_gamma    90

_symmetry_space_group_name_H-M    "P 1"
_symmetry_int_tables_number       1

loop_
  _symmetry_equiv_pos_as_xyz
  'x, y, z'

loop_
  _atom_site_label
  _atom_site_occupancy
  _atom_site_fract_x
  _atom_site_fract_y
  _atom_site_fract_z
  _atom_site_thermal_displace_type
  _atom_site_B_iso_or_equiv
  _atom_site_type_symbol
  Os1      1.0000 0.50000  0.00000  0.50000  Biso   1.000  Os
  Os2      1.0000 1.00000  0.50000  0.50000  Biso   1.000  Os
  Te1      1.0000 0.15131  0.15127  0.50007  Biso   1.000  Te
  Te2      1.0000 0.65131  0.34873  0.49993  Biso   1.000  Te
  Te3      1.0000 0.84869  0.84873  0.49993  Biso   1.000  Te
  Te4      1.0000 0.34869  0.65127  0.50007  Biso   1.000  Te
