data_image0
_cell_length_a       7.57107
_cell_length_b       7.59113
_cell_length_c       18.4116
_cell_angle_alpha    90
_cell_angle_beta     90
_cell_angle_gamma    119.913

_symmetry_space_group_name_H-M    "P 1"
_symmetry_int_tables_number       1

loop_
  _symmetry_equiv_pos_as_xyz
  'x, y, z'

loop_
  _atom_site_label
  _atom_site_occupancy
  _atom_site_fract_x
  _atom_site_fract_y
  _atom_site_fract_z
  _atom_site_thermal_displace_type
  _atom_site_B_iso_or_equiv
  _atom_site_type_symbol
  Sb1      1.0000 0.99964  0.99969  0.49578  Biso   1.000  Sb
  Sb2      1.0000 0.33312  0.66687  0.49574  Biso   1.000  Sb
  P1       1.0000 0.66687  0.33334  0.45483  Biso   1.000  P
  P2       1.0000 0.66673  0.33334  0.57963  Biso   1.000  P
  Te1      1.0000 0.36698  0.03358  0.40054  Biso   1.000  Te
  Te2      1.0000 0.96690  0.33316  0.40034  Biso   1.000  Te
  Te3      1.0000 0.66711  0.63322  0.40052  Biso   1.000  Te
  Te4      1.0000 0.02431  0.69171  0.59107  Biso   1.000  Te
  Te5      1.0000 0.30998  0.33359  0.59079  Biso   1.000  Te
  Te6      1.0000 0.66507  0.97492  0.59100  Biso   1.000  Te
