data_image0
_cell_length_a       7.08295
_cell_length_b       7.09404
_cell_length_c       18.4116
_cell_angle_alpha    90
_cell_angle_beta     90
_cell_angle_gamma    119.948

_symmetry_space_group_name_H-M    "P 1"
_symmetry_int_tables_number       1

loop_
  _symmetry_equiv_pos_as_xyz
  'x, y, z'

loop_
  _atom_site_label
  _atom_site_occupancy
  _atom_site_fract_x
  _atom_site_fract_y
  _atom_site_fract_z
  _atom_site_thermal_displace_type
  _atom_site_B_iso_or_equiv
  _atom_site_type_symbol
  Sb1      1.0000 0.99981  0.99938  0.49727  Biso   1.000  Sb
  Sb2      1.0000 0.33335  0.66723  0.49715  Biso   1.000  Sb
  P1       1.0000 0.66683  0.33337  0.45268  Biso   1.000  P
  P2       1.0000 0.66594  0.33302  0.57767  Biso   1.000  P
  Se1      1.0000 0.37427  0.04114  0.40680  Biso   1.000  Se
  Se2      1.0000 0.95878  0.33304  0.40669  Biso   1.000  Se
  Se3      1.0000 0.66721  0.62573  0.40678  Biso   1.000  Se
  Se4      1.0000 0.02117  0.68836  0.58498  Biso   1.000  Se
  Se5      1.0000 0.31396  0.33342  0.58498  Biso   1.000  Se
  Se6      1.0000 0.66538  0.97870  0.58498  Biso   1.000  Se
