data_image0
_cell_length_a       8.0061
_cell_length_b       7.95733
_cell_length_c       30.2074
_cell_angle_alpha    90
_cell_angle_beta     90
_cell_angle_gamma    90

_symmetry_space_group_name_H-M    "P 1"
_symmetry_int_tables_number       1

loop_
  _symmetry_equiv_pos_as_xyz
  'x, y, z'

loop_
  _atom_site_label
  _atom_site_occupancy
  _atom_site_fract_x
  _atom_site_fract_y
  _atom_site_fract_z
  _atom_site_thermal_displace_type
  _atom_site_B_iso_or_equiv
  _atom_site_type_symbol
  C1       1.0000 0.03498  0.47294  0.39091  Biso   1.000  C
  C2       1.0000 0.53566  0.02451  0.60911  Biso   1.000  C
  C3       1.0000 0.96406  0.52522  0.60907  Biso   1.000  C
  C4       1.0000 0.46334  0.97505  0.39092  Biso   1.000  C
  H1       1.0000 0.01055  0.34506  0.40192  Biso   1.000  H
  H2       1.0000 0.51164  0.15217  0.59787  Biso   1.000  H
  H3       1.0000 0.98798  0.65303  0.59792  Biso   1.000  H
  H4       1.0000 0.48729  0.84743  0.40221  Biso   1.000  H
  H5       1.0000 0.16005  0.50828  0.40146  Biso   1.000  H
  H6       1.0000 0.66080  0.98870  0.59871  Biso   1.000  H
  H7       1.0000 0.83903  0.48933  0.59858  Biso   1.000  H
  H8       1.0000 0.33820  0.01093  0.40130  Biso   1.000  H
  C5       1.0000 0.01310  0.49109  0.34109  Biso   1.000  C
  C6       1.0000 0.51314  0.00754  0.65895  Biso   1.000  C
  C7       1.0000 0.98649  0.50770  0.65888  Biso   1.000  C
  C8       1.0000 0.48607  0.99198  0.34111  Biso   1.000  C
  H9       1.0000 0.03467  0.62233  0.33170  Biso   1.000  H
  H10      1.0000 0.53443  0.87652  0.66858  Biso   1.000  H
  H11      1.0000 0.96523  0.37653  0.66838  Biso   1.000  H
  H12      1.0000 0.46493  0.12306  0.33150  Biso   1.000  H
  H13      1.0000 0.88379  0.46104  0.33216  Biso   1.000  H
  H14      1.0000 0.38380  0.03801  0.66772  Biso   1.000  H
  H15      1.0000 0.11586  0.53803  0.66768  Biso   1.000  H
  H16      1.0000 0.61545  0.96150  0.33238  Biso   1.000  H
  C9       1.0000 0.13302  0.37628  0.31568  Biso   1.000  C
  C10      1.0000 0.63295  0.12273  0.68428  Biso   1.000  C
  C11      1.0000 0.86671  0.62257  0.68431  Biso   1.000  C
  C12      1.0000 0.36632  0.87704  0.31569  Biso   1.000  C
  H17      1.0000 0.11001  0.24597  0.32549  Biso   1.000  H
  H18      1.0000 0.60994  0.25293  0.67440  Biso   1.000  H
  H19      1.0000 0.88964  0.75286  0.67449  Biso   1.000  H
  H20      1.0000 0.38911  0.74677  0.32556  Biso   1.000  H
  H21      1.0000 0.26128  0.40544  0.32548  Biso   1.000  H
  H22      1.0000 0.76126  0.09354  0.67456  Biso   1.000  H
  H23      1.0000 0.73842  0.59338  0.67458  Biso   1.000  H
  H24      1.0000 0.23797  0.90633  0.32536  Biso   1.000  H
  C13      1.0000 0.11496  0.39376  0.26557  Biso   1.000  C
  C14      1.0000 0.61468  0.10582  0.73442  Biso   1.000  C
  C15      1.0000 0.88504  0.60521  0.73442  Biso   1.000  C
  C16      1.0000 0.38493  0.89409  0.26557  Biso   1.000  C
  H25      1.0000 0.98850  0.36180  0.25480  Biso   1.000  H
  H26      1.0000 0.48814  0.13778  0.74514  Biso   1.000  H
  H27      1.0000 0.01165  0.63680  0.74516  Biso   1.000  H
  H28      1.0000 0.51152  0.86219  0.25488  Biso   1.000  H
  H29      1.0000 0.20180  0.31057  0.24831  Biso   1.000  H
  H30      1.0000 0.70138  0.18926  0.75165  Biso   1.000  H
  H31      1.0000 0.79853  0.68866  0.75172  Biso   1.000  H
  H32      1.0000 0.29833  0.81068  0.24828  Biso   1.000  H
  H33      1.0000 0.14090  0.52242  0.25486  Biso   1.000  H
  H34      1.0000 0.64066  0.97729  0.74525  Biso   1.000  H
  H35      1.0000 0.85879  0.47665  0.74518  Biso   1.000  H
  H36      1.0000 0.35897  0.02263  0.25475  Biso   1.000  H
  N1       1.0000 0.91586  0.58458  0.41520  Biso   1.000  N
  N2       1.0000 0.41653  0.91255  0.58487  Biso   1.000  N
  N3       1.0000 0.08347  0.41366  0.58479  Biso   1.000  N
  N4       1.0000 0.58247  0.08710  0.41519  Biso   1.000  N
  H37      1.0000 0.93623  0.70998  0.40780  Biso   1.000  H
  H38      1.0000 0.43665  0.78738  0.59251  Biso   1.000  H
  H39      1.0000 0.06343  0.28827  0.59219  Biso   1.000  H
  H40      1.0000 0.56239  0.21228  0.40754  Biso   1.000  H
  H41      1.0000 0.93061  0.57009  0.44862  Biso   1.000  H
  H42      1.0000 0.43179  0.92597  0.55143  Biso   1.000  H
  H43      1.0000 0.06879  0.42806  0.55137  Biso   1.000  H
  H44      1.0000 0.56705  0.07368  0.44861  Biso   1.000  H
  H45      1.0000 0.79284  0.55630  0.40767  Biso   1.000  H
  H46      1.0000 0.29360  0.94143  0.59226  Biso   1.000  H
  H47      1.0000 0.20634  0.44245  0.59232  Biso   1.000  H
  H48      1.0000 0.70542  0.05812  0.40785  Biso   1.000  H
  Br1      1.0000 0.48127  0.50660  0.60369  Biso   1.000  Br
  Br2      1.0000 0.97949  0.99097  0.39632  Biso   1.000  Br
  Br3      1.0000 0.51784  0.49309  0.39633  Biso   1.000  Br
  Br4      1.0000 0.01901  0.00735  0.60367  Biso   1.000  Br
  Br5      1.0000 0.67500  0.82399  0.50042  Biso   1.000  Br
  Br6      1.0000 0.17544  0.67457  0.49930  Biso   1.000  Br
  Br7      1.0000 0.32250  0.17451  0.49952  Biso   1.000  Br
  Br8      1.0000 0.82257  0.32376  0.50073  Biso   1.000  Br
  Pb1      1.0000 0.49898  0.49919  0.50000  Biso   1.000  Pb
  Pb2      1.0000 0.99878  0.99906  0.50001  Biso   1.000  Pb
