data_image0
_cell_length_a       8.17566
_cell_length_b       8.08892
_cell_length_c       30.7591
_cell_angle_alpha    90
_cell_angle_beta     90
_cell_angle_gamma    90

_symmetry_space_group_name_H-M    "P 1"
_symmetry_int_tables_number       1

loop_
  _symmetry_equiv_pos_as_xyz
  'x, y, z'

loop_
  _atom_site_label
  _atom_site_occupancy
  _atom_site_fract_x
  _atom_site_fract_y
  _atom_site_fract_z
  _atom_site_thermal_displace_type
  _atom_site_B_iso_or_equiv
  _atom_site_type_symbol
  C1       1.0000 0.04472  0.47151  0.38896  Biso   1.000  C
  C2       1.0000 0.54451  0.02877  0.61104  Biso   1.000  C
  C3       1.0000 0.95544  0.52887  0.61102  Biso   1.000  C
  C4       1.0000 0.45537  0.97158  0.38898  Biso   1.000  C
  H1       1.0000 0.02788  0.34274  0.39811  Biso   1.000  H
  H2       1.0000 0.52752  0.15756  0.60192  Biso   1.000  H
  H3       1.0000 0.97249  0.65765  0.60189  Biso   1.000  H
  H4       1.0000 0.47220  0.84281  0.39813  Biso   1.000  H
  H5       1.0000 0.16905  0.50787  0.39703  Biso   1.000  H
  H6       1.0000 0.66886  0.99255  0.60295  Biso   1.000  H
  H7       1.0000 0.83108  0.49270  0.60292  Biso   1.000  H
  H8       1.0000 0.33105  0.00797  0.39706  Biso   1.000  H
  C5       1.0000 0.00694  0.49936  0.34106  Biso   1.000  C
  C6       1.0000 0.50687  0.00078  0.65894  Biso   1.000  C
  C7       1.0000 0.99303  0.50088  0.65892  Biso   1.000  C
  C8       1.0000 0.49309  0.99942  0.34108  Biso   1.000  C
  H9       1.0000 0.02203  0.63055  0.33321  Biso   1.000  H
  H10      1.0000 0.52214  0.86960  0.66677  Biso   1.000  H
  H11      1.0000 0.97761  0.36972  0.66676  Biso   1.000  H
  H12      1.0000 0.47791  0.13059  0.33322  Biso   1.000  H
  H13      1.0000 0.87887  0.46805  0.33464  Biso   1.000  H
  H14      1.0000 0.37877  0.03191  0.66538  Biso   1.000  H
  H15      1.0000 0.12116  0.53188  0.66537  Biso   1.000  H
  H16      1.0000 0.62117  0.96818  0.33465  Biso   1.000  H
  C9       1.0000 0.11884  0.39461  0.31216  Biso   1.000  C
  C10      1.0000 0.61868  0.10563  0.68784  Biso   1.000  C
  C11      1.0000 0.88131  0.60589  0.68781  Biso   1.000  C
  C12      1.0000 0.38124  0.89456  0.31219  Biso   1.000  C
  H17      1.0000 0.10229  0.26414  0.32043  Biso   1.000  H
  H18      1.0000 0.60195  0.23609  0.67958  Biso   1.000  H
  H19      1.0000 0.89818  0.73632  0.67954  Biso   1.000  H
  H20      1.0000 0.39788  0.76411  0.32046  Biso   1.000  H
  H21      1.0000 0.24630  0.42471  0.31945  Biso   1.000  H
  H22      1.0000 0.74617  0.07567  0.68055  Biso   1.000  H
  H23      1.0000 0.75378  0.57602  0.68054  Biso   1.000  H
  H24      1.0000 0.25377  0.92459  0.31947  Biso   1.000  H
  C13      1.0000 0.08505  0.42135  0.26387  Biso   1.000  C
  C14      1.0000 0.58493  0.07882  0.73613  Biso   1.000  C
  C15      1.0000 0.91505  0.57911  0.73611  Biso   1.000  C
  C16      1.0000 0.41502  0.92128  0.26389  Biso   1.000  C
  H25      1.0000 0.95875  0.38929  0.25581  Biso   1.000  H
  H26      1.0000 0.45860  0.11073  0.74420  Biso   1.000  H
  H27      1.0000 0.04143  0.61084  0.74416  Biso   1.000  H
  H28      1.0000 0.54134  0.88930  0.25584  Biso   1.000  H
  H29      1.0000 0.16575  0.34528  0.24383  Biso   1.000  H
  H30      1.0000 0.66558  0.15495  0.75617  Biso   1.000  H
  H31      1.0000 0.83451  0.65534  0.75615  Biso   1.000  H
  H32      1.0000 0.33435  0.84514  0.24386  Biso   1.000  H
  H33      1.0000 0.10442  0.55066  0.25484  Biso   1.000  H
  H34      1.0000 0.60446  0.94953  0.74515  Biso   1.000  H
  H35      1.0000 0.89539  0.44985  0.74514  Biso   1.000  H
  H36      1.0000 0.39555  0.05057  0.25485  Biso   1.000  H
  N1       1.0000 0.93354  0.57114  0.41730  Biso   1.000  N
  N2       1.0000 0.43334  0.92912  0.58270  Biso   1.000  N
  N3       1.0000 0.06659  0.42915  0.58269  Biso   1.000  N
  N4       1.0000 0.56661  0.07119  0.41730  Biso   1.000  N
  H37      1.0000 0.94698  0.69600  0.41112  Biso   1.000  H
  H38      1.0000 0.44687  0.80426  0.58887  Biso   1.000  H
  H39      1.0000 0.05315  0.30431  0.58890  Biso   1.000  H
  H40      1.0000 0.55326  0.19604  0.41110  Biso   1.000  H
  H41      1.0000 0.95857  0.55162  0.44947  Biso   1.000  H
  H42      1.0000 0.45830  0.94871  0.55053  Biso   1.000  H
  H43      1.0000 0.04151  0.44854  0.55052  Biso   1.000  H
  H44      1.0000 0.54153  0.05179  0.44948  Biso   1.000  H
  H45      1.0000 0.81242  0.54111  0.41185  Biso   1.000  H
  H46      1.0000 0.31221  0.95907  0.58817  Biso   1.000  H
  H47      1.0000 0.18771  0.45919  0.58813  Biso   1.000  H
  H48      1.0000 0.68771  0.04107  0.41186  Biso   1.000  H
  I1       1.0000 0.47903  0.50845  0.60699  Biso   1.000  I
  I2       1.0000 0.97905  0.99183  0.39305  Biso   1.000  I
  I3       1.0000 0.52107  0.49189  0.39305  Biso   1.000  I
  I4       1.0000 0.02094  0.00851  0.60699  Biso   1.000  I
  Br1      1.0000 0.68266  0.81883  0.50022  Biso   1.000  Br
  Br2      1.0000 0.18269  0.68149  0.49982  Biso   1.000  Br
  Br3      1.0000 0.31760  0.18147  0.49983  Biso   1.000  Br
  Br4      1.0000 0.81761  0.31884  0.50018  Biso   1.000  Br
  Pb1      1.0000 0.50012  0.50014  0.50002  Biso   1.000  Pb
  Pb2      1.0000 0.00009  0.00012  0.50001  Biso   1.000  Pb
