data_image0
_cell_length_a       4.41207
_cell_length_b       4.4535
_cell_length_c       22.5674
_cell_angle_alpha    90
_cell_angle_beta     90
_cell_angle_gamma    90

_symmetry_space_group_name_H-M    "P 1"
_symmetry_int_tables_number       1

loop_
  _symmetry_equiv_pos_as_xyz
  'x, y, z'

loop_
  _atom_site_label
  _atom_site_occupancy
  _atom_site_fract_x
  _atom_site_fract_y
  _atom_site_fract_z
  _atom_site_thermal_displace_type
  _atom_site_B_iso_or_equiv
  _atom_site_type_symbol
  Pb1      1.0000 0.50000  1.00000  0.39973  Biso   1.000  Pb
  Pb2      1.0000 1.00000  0.50000  0.60025  Biso   1.000  Pb
  Se1      1.0000 0.50000  0.50000  0.50387  Biso   1.000  Se
  Se2      1.0000 0.00000  0.00000  0.49616  Biso   1.000  Se
  Br1      1.0000 0.50000  0.50000  0.31546  Biso   1.000  Br
  Br2      1.0000 0.00000  0.00000  0.68458  Biso   1.000  Br
