data_image0
_cell_length_a       4.31478
_cell_length_b       4.31875
_cell_length_c       18.8558
_cell_angle_alpha    90
_cell_angle_beta     90
_cell_angle_gamma    119.97

_symmetry_space_group_name_H-M    "P 1"
_symmetry_int_tables_number       1

loop_
  _symmetry_equiv_pos_as_xyz
  'x, y, z'

loop_
  _atom_site_label
  _atom_site_occupancy
  _atom_site_fract_x
  _atom_site_fract_y
  _atom_site_fract_z
  _atom_site_thermal_displace_type
  _atom_site_B_iso_or_equiv
  _atom_site_type_symbol
  Br1      1.0000 0.00003  0.00040  0.33934  Biso   1.000  Br
  Br2      1.0000 0.33331  0.66626  0.66070  Biso   1.000  Br
  Pb1      1.0000 0.99999  0.00020  0.57022  Biso   1.000  Pb
  Pb2      1.0000 0.33334  0.66647  0.42985  Biso   1.000  Pb
