data_image0
_cell_length_a       7.87409
_cell_length_b       7.83619
_cell_length_c       30.0349
_cell_angle_alpha    90
_cell_angle_beta     90
_cell_angle_gamma    90

_symmetry_space_group_name_H-M    "P 1"
_symmetry_int_tables_number       1

loop_
  _symmetry_equiv_pos_as_xyz
  'x, y, z'

loop_
  _atom_site_label
  _atom_site_occupancy
  _atom_site_fract_x
  _atom_site_fract_y
  _atom_site_fract_z
  _atom_site_thermal_displace_type
  _atom_site_B_iso_or_equiv
  _atom_site_type_symbol
  C1       1.0000 0.03326  0.47814  0.39030  Biso   1.000  C
  C2       1.0000 0.53073  0.02248  0.60969  Biso   1.000  C
  C3       1.0000 0.96685  0.52208  0.60971  Biso   1.000  C
  C4       1.0000 0.46945  0.97765  0.39038  Biso   1.000  C
  H1       1.0000 0.00851  0.34914  0.40218  Biso   1.000  H
  H2       1.0000 0.50573  0.15143  0.59780  Biso   1.000  H
  H3       1.0000 0.99183  0.65102  0.59783  Biso   1.000  H
  H4       1.0000 0.49449  0.84868  0.40225  Biso   1.000  H
  H5       1.0000 0.16045  0.51503  0.40087  Biso   1.000  H
  H6       1.0000 0.65757  0.98549  0.59891  Biso   1.000  H
  H7       1.0000 0.83962  0.48539  0.59914  Biso   1.000  H
  H8       1.0000 0.34256  0.01456  0.40115  Biso   1.000  H
  C5       1.0000 0.01320  0.49055  0.34009  Biso   1.000  C
  C6       1.0000 0.51172  0.01005  0.65993  Biso   1.000  C
  C7       1.0000 0.98688  0.50968  0.65992  Biso   1.000  C
  C8       1.0000 0.48853  0.99015  0.34014  Biso   1.000  C
  H9       1.0000 0.03582  0.62251  0.32945  Biso   1.000  H
  H10      1.0000 0.53454  0.87799  0.67050  Biso   1.000  H
  H11      1.0000 0.96415  0.37775  0.67057  Biso   1.000  H
  H12      1.0000 0.46566  0.12221  0.32958  Biso   1.000  H
  H13      1.0000 0.88210  0.45878  0.33084  Biso   1.000  H
  H14      1.0000 0.38086  0.04180  0.66938  Biso   1.000  H
  H15      1.0000 0.11798  0.54137  0.66918  Biso   1.000  H
  H16      1.0000 0.61943  0.95849  0.33072  Biso   1.000  H
  C9       1.0000 0.13674  0.36999  0.31635  Biso   1.000  C
  C10      1.0000 0.63583  0.13032  0.68358  Biso   1.000  C
  C11      1.0000 0.86338  0.63030  0.68366  Biso   1.000  C
  C12      1.0000 0.36450  0.86983  0.31648  Biso   1.000  C
  H17      1.0000 0.11192  0.23939  0.32754  Biso   1.000  H
  H18      1.0000 0.61113  0.26100  0.67245  Biso   1.000  H
  H19      1.0000 0.88833  0.76090  0.67249  Biso   1.000  H
  H20      1.0000 0.38924  0.73915  0.32761  Biso   1.000  H
  H21      1.0000 0.26646  0.40084  0.32670  Biso   1.000  H
  H22      1.0000 0.76533  0.09921  0.67312  Biso   1.000  H
  H23      1.0000 0.73367  0.59957  0.67328  Biso   1.000  H
  H24      1.0000 0.23498  0.90091  0.32693  Biso   1.000  H
  C13      1.0000 0.12243  0.37984  0.26570  Biso   1.000  C
  C14      1.0000 0.62217  0.12024  0.73424  Biso   1.000  C
  C15      1.0000 0.87751  0.62028  0.73431  Biso   1.000  C
  C16      1.0000 0.37828  0.87995  0.26582  Biso   1.000  C
  H25      1.0000 0.99452  0.34586  0.25459  Biso   1.000  H
  H26      1.0000 0.49449  0.15440  0.74549  Biso   1.000  H
  H27      1.0000 0.00537  0.65419  0.74546  Biso   1.000  H
  H28      1.0000 0.50602  0.84586  0.25461  Biso   1.000  H
  H29      1.0000 0.21174  0.29266  0.24971  Biso   1.000  H
  H30      1.0000 0.71183  0.20717  0.75018  Biso   1.000  H
  H31      1.0000 0.78816  0.70746  0.75029  Biso   1.000  H
  H32      1.0000 0.28867  0.79308  0.24985  Biso   1.000  H
  H33      1.0000 0.14980  0.50866  0.25371  Biso   1.000  H
  H34      1.0000 0.64948  0.99133  0.74617  Biso   1.000  H
  H35      1.0000 0.85003  0.49145  0.74627  Biso   1.000  H
  H36      1.0000 0.35101  0.00890  0.25391  Biso   1.000  H
  N1       1.0000 0.91126  0.59386  0.41370  Biso   1.000  N
  N2       1.0000 0.40814  0.90672  0.58649  Biso   1.000  N
  N3       1.0000 0.08870  0.40613  0.58632  Biso   1.000  N
  N4       1.0000 0.59195  0.09338  0.41362  Biso   1.000  N
  H37      1.0000 0.93269  0.72075  0.40574  Biso   1.000  H
  H38      1.0000 0.42979  0.77980  0.59425  Biso   1.000  H
  H39      1.0000 0.06714  0.27930  0.59430  Biso   1.000  H
  H40      1.0000 0.57026  0.22035  0.40588  Biso   1.000  H
  H41      1.0000 0.92639  0.58183  0.44740  Biso   1.000  H
  H42      1.0000 0.42255  0.91929  0.55277  Biso   1.000  H
  H43      1.0000 0.07356  0.41813  0.55262  Biso   1.000  H
  H44      1.0000 0.57753  0.08076  0.44734  Biso   1.000  H
  H45      1.0000 0.78631  0.56343  0.40635  Biso   1.000  H
  H46      1.0000 0.28324  0.93706  0.59393  Biso   1.000  H
  H47      1.0000 0.21367  0.43643  0.59366  Biso   1.000  H
  H48      1.0000 0.71685  0.06312  0.40618  Biso   1.000  H
  Cl1      1.0000 0.47858  0.50825  0.60009  Biso   1.000  Cl
  Cl2      1.0000 0.98128  0.99101  0.39994  Biso   1.000  Cl
  Cl3      1.0000 0.52186  0.49168  0.39991  Biso   1.000  Cl
  Cl4      1.0000 0.01875  0.00896  0.60007  Biso   1.000  Cl
  Br1      1.0000 0.67080  0.83023  0.50063  Biso   1.000  Br
  Br2      1.0000 0.17084  0.66997  0.49982  Biso   1.000  Br
  Br3      1.0000 0.32953  0.16993  0.49947  Biso   1.000  Br
  Br4      1.0000 0.82946  0.33002  0.50021  Biso   1.000  Br
  Pb1      1.0000 0.50021  0.50008  0.50004  Biso   1.000  Pb
  Pb2      1.0000 0.00023  0.00000  0.50000  Biso   1.000  Pb
