data_image0
_cell_length_a       7.81059
_cell_length_b       7.77005
_cell_length_c       30.153
_cell_angle_alpha    90
_cell_angle_beta     90
_cell_angle_gamma    90

_symmetry_space_group_name_H-M    "P 1"
_symmetry_int_tables_number       1

loop_
  _symmetry_equiv_pos_as_xyz
  'x, y, z'

loop_
  _atom_site_label
  _atom_site_occupancy
  _atom_site_fract_x
  _atom_site_fract_y
  _atom_site_fract_z
  _atom_site_thermal_displace_type
  _atom_site_B_iso_or_equiv
  _atom_site_type_symbol
  C1       1.0000 0.04839  0.46529  0.39347  Biso   1.000  C
  C2       1.0000 0.54728  0.03441  0.60653  Biso   1.000  C
  C3       1.0000 0.95174  0.53470  0.60652  Biso   1.000  C
  C4       1.0000 0.45273  0.96555  0.39348  Biso   1.000  C
  H1       1.0000 0.02829  0.33360  0.40456  Biso   1.000  H
  H2       1.0000 0.52678  0.16612  0.59549  Biso   1.000  H
  H3       1.0000 0.97187  0.66641  0.59545  Biso   1.000  H
  H4       1.0000 0.47324  0.83388  0.40454  Biso   1.000  H
  H5       1.0000 0.17740  0.50436  0.40250  Biso   1.000  H
  H6       1.0000 0.67634  0.99579  0.59744  Biso   1.000  H
  H7       1.0000 0.82271  0.49569  0.59749  Biso   1.000  H
  H8       1.0000 0.32368  0.00421  0.40257  Biso   1.000  H
  C5       1.0000 0.01691  0.48332  0.34381  Biso   1.000  C
  C6       1.0000 0.51617  0.01622  0.65620  Biso   1.000  C
  C7       1.0000 0.98318  0.51659  0.65619  Biso   1.000  C
  C8       1.0000 0.48377  0.98362  0.34381  Biso   1.000  C
  H9       1.0000 0.03476  0.61792  0.33405  Biso   1.000  H
  H10      1.0000 0.53423  0.88158  0.66590  Biso   1.000  H
  H11      1.0000 0.96529  0.38196  0.66592  Biso   1.000  H
  H12      1.0000 0.46574  0.11824  0.33408  Biso   1.000  H
  H13      1.0000 0.88376  0.44963  0.33636  Biso   1.000  H
  H14      1.0000 0.38305  0.04977  0.66372  Biso   1.000  H
  H15      1.0000 0.11633  0.55022  0.66365  Biso   1.000  H
  H16      1.0000 0.61688  0.95003  0.33627  Biso   1.000  H
  C9       1.0000 0.13754  0.36772  0.31692  Biso   1.000  C
  C10      1.0000 0.63697  0.13185  0.68302  Biso   1.000  C
  C11      1.0000 0.86256  0.63217  0.68308  Biso   1.000  C
  C12      1.0000 0.36292  0.86795  0.31701  Biso   1.000  C
  H17      1.0000 0.11721  0.23389  0.32682  Biso   1.000  H
  H18      1.0000 0.61661  0.26566  0.67310  Biso   1.000  H
  H19      1.0000 0.88291  0.76600  0.67318  Biso   1.000  H
  H20      1.0000 0.38332  0.73415  0.32693  Biso   1.000  H
  H21      1.0000 0.27008  0.39909  0.32529  Biso   1.000  H
  H22      1.0000 0.76943  0.10042  0.67457  Biso   1.000  H
  H23      1.0000 0.73002  0.60082  0.67470  Biso   1.000  H
  H24      1.0000 0.23047  0.89940  0.32547  Biso   1.000  H
  C13      1.0000 0.11093  0.38574  0.26694  Biso   1.000  C
  C14      1.0000 0.61079  0.11395  0.73301  Biso   1.000  C
  C15      1.0000 0.88915  0.61410  0.73306  Biso   1.000  C
  C16      1.0000 0.38903  0.88583  0.26701  Biso   1.000  C
  H25      1.0000 0.98027  0.35129  0.25742  Biso   1.000  H
  H26      1.0000 0.48025  0.14853  0.74261  Biso   1.000  H
  H27      1.0000 0.01980  0.64857  0.74259  Biso   1.000  H
  H28      1.0000 0.51957  0.85130  0.25740  Biso   1.000  H
  H29      1.0000 0.19840  0.30172  0.24873  Biso   1.000  H
  H30      1.0000 0.69853  0.19795  0.75114  Biso   1.000  H
  H31      1.0000 0.80165  0.69808  0.75127  Biso   1.000  H
  H32      1.0000 0.30130  0.80178  0.24889  Biso   1.000  H
  H33      1.0000 0.13411  0.51780  0.25594  Biso   1.000  H
  H34      1.0000 0.63399  0.98190  0.74401  Biso   1.000  H
  H35      1.0000 0.86600  0.48203  0.74405  Biso   1.000  H
  H36      1.0000 0.36576  0.01785  0.25600  Biso   1.000  H
  N1       1.0000 0.92828  0.57601  0.41951  Biso   1.000  N
  N2       1.0000 0.42727  0.92350  0.58049  Biso   1.000  N
  N3       1.0000 0.07184  0.42400  0.58047  Biso   1.000  N
  N4       1.0000 0.57278  0.07653  0.41949  Biso   1.000  N
  H37      1.0000 0.94407  0.70477  0.41172  Biso   1.000  H
  H38      1.0000 0.44344  0.79471  0.58820  Biso   1.000  H
  H39      1.0000 0.05601  0.29523  0.58825  Biso   1.000  H
  H40      1.0000 0.55661  0.20531  0.41177  Biso   1.000  H
  H41      1.0000 0.94948  0.56174  0.45272  Biso   1.000  H
  H42      1.0000 0.44821  0.93835  0.54729  Biso   1.000  H
  H43      1.0000 0.05063  0.43834  0.54727  Biso   1.000  H
  H44      1.0000 0.55191  0.06174  0.45270  Biso   1.000  H
  H45      1.0000 0.80210  0.54418  0.41308  Biso   1.000  H
  H46      1.0000 0.30113  0.95504  0.58702  Biso   1.000  H
  H47      1.0000 0.19801  0.45581  0.58691  Biso   1.000  H
  H48      1.0000 0.69892  0.04497  0.41296  Biso   1.000  H
  Br1      1.0000 0.47347  0.51347  0.60335  Biso   1.000  Br
  Br2      1.0000 0.97408  0.98638  0.39663  Biso   1.000  Br
  Br3      1.0000 0.52663  0.48655  0.39664  Biso   1.000  Br
  Br4      1.0000 0.02597  0.01366  0.60336  Biso   1.000  Br
  Cl1      1.0000 0.68376  0.81699  0.49958  Biso   1.000  Cl
  Cl2      1.0000 0.18361  0.68325  0.50045  Biso   1.000  Cl
  Cl3      1.0000 0.31676  0.18341  0.50045  Biso   1.000  Cl
  Cl4      1.0000 0.81652  0.31677  0.49953  Biso   1.000  Cl
  Pb1      1.0000 0.50013  0.50012  0.50000  Biso   1.000  Pb
  Pb2      1.0000 0.00015  0.00009  0.49999  Biso   1.000  Pb
