data_image0
_cell_length_a       8.30926
_cell_length_b       8.2276
_cell_length_c       30.4462
_cell_angle_alpha    90
_cell_angle_beta     90
_cell_angle_gamma    90

_symmetry_space_group_name_H-M    "P 1"
_symmetry_int_tables_number       1

loop_
  _symmetry_equiv_pos_as_xyz
  'x, y, z'

loop_
  _atom_site_label
  _atom_site_occupancy
  _atom_site_fract_x
  _atom_site_fract_y
  _atom_site_fract_z
  _atom_site_thermal_displace_type
  _atom_site_B_iso_or_equiv
  _atom_site_type_symbol
  C1       1.0000 0.02542  0.48583  0.38491  Biso   1.000  C
  C2       1.0000 0.52568  0.01375  0.61501  Biso   1.000  C
  C3       1.0000 0.97523  0.51386  0.61504  Biso   1.000  C
  C4       1.0000 0.47573  0.98597  0.38489  Biso   1.000  C
  H1       1.0000 0.00007  0.36254  0.39606  Biso   1.000  H
  H2       1.0000 0.50026  0.13700  0.60384  Biso   1.000  H
  H3       1.0000 0.00062  0.63717  0.60391  Biso   1.000  H
  H4       1.0000 0.50133  0.86268  0.39599  Biso   1.000  H
  H5       1.0000 0.14536  0.51946  0.39621  Biso   1.000  H
  H6       1.0000 0.64574  0.98023  0.60380  Biso   1.000  H
  H7       1.0000 0.85529  0.48029  0.60372  Biso   1.000  H
  H8       1.0000 0.35581  0.01939  0.39625  Biso   1.000  H
  C5       1.0000 0.01057  0.50053  0.33531  Biso   1.000  C
  C6       1.0000 0.51044  0.99907  0.66461  Biso   1.000  C
  C7       1.0000 0.98993  0.49906  0.66464  Biso   1.000  C
  C8       1.0000 0.49019  0.00087  0.33528  Biso   1.000  C
  H9       1.0000 0.03501  0.62635  0.32540  Biso   1.000  H
  H10      1.0000 0.53476  0.87325  0.67454  Biso   1.000  H
  H11      1.0000 0.96549  0.37322  0.67453  Biso   1.000  H
  H12      1.0000 0.46562  0.12669  0.32540  Biso   1.000  H
  H13      1.0000 0.88667  0.47297  0.32531  Biso   1.000  H
  H14      1.0000 0.38646  0.02666  0.67453  Biso   1.000  H
  H15      1.0000 0.11383  0.52658  0.67466  Biso   1.000  H
  H16      1.0000 0.61407  0.97346  0.32521  Biso   1.000  H
  C9       1.0000 0.12779  0.38510  0.31206  Biso   1.000  C
  C10      1.0000 0.62748  0.11450  0.68792  Biso   1.000  C
  C11      1.0000 0.87277  0.61448  0.68790  Biso   1.000  C
  C12      1.0000 0.37304  0.88539  0.31203  Biso   1.000  C
  H17      1.0000 0.10213  0.26037  0.32249  Biso   1.000  H
  H18      1.0000 0.60189  0.23922  0.67747  Biso   1.000  H
  H19      1.0000 0.89843  0.73921  0.67748  Biso   1.000  H
  H20      1.0000 0.39875  0.76065  0.32243  Biso   1.000  H
  H21      1.0000 0.25042  0.41246  0.32291  Biso   1.000  H
  H22      1.0000 0.75020  0.08714  0.67713  Biso   1.000  H
  H23      1.0000 0.75012  0.58713  0.67706  Biso   1.000  H
  H24      1.0000 0.25042  0.91267  0.32291  Biso   1.000  H
  C13      1.0000 0.11743  0.39722  0.26208  Biso   1.000  C
  C14      1.0000 0.61673  0.10238  0.73789  Biso   1.000  C
  C15      1.0000 0.88318  0.60224  0.73788  Biso   1.000  C
  C16      1.0000 0.38318  0.89764  0.26205  Biso   1.000  C
  H25      1.0000 0.99638  0.36776  0.25045  Biso   1.000  H
  H26      1.0000 0.49560  0.13180  0.74947  Biso   1.000  H
  H27      1.0000 0.00420  0.63171  0.74954  Biso   1.000  H
  H28      1.0000 0.50417  0.86828  0.25034  Biso   1.000  H
  H29      1.0000 0.20146  0.31333  0.24635  Biso   1.000  H
  H30      1.0000 0.70061  0.18630  0.75366  Biso   1.000  H
  H31      1.0000 0.79909  0.68603  0.75363  Biso   1.000  H
  H32      1.0000 0.29911  0.81374  0.24634  Biso   1.000  H
  H33      1.0000 0.14638  0.52005  0.25083  Biso   1.000  H
  H34      1.0000 0.64568  0.97958  0.74917  Biso   1.000  H
  H35      1.0000 0.85422  0.47938  0.74911  Biso   1.000  H
  H36      1.0000 0.35403  0.02045  0.25082  Biso   1.000  H
  N1       1.0000 0.90888  0.59555  0.40804  Biso   1.000  N
  N2       1.0000 0.40945  0.90395  0.59180  Biso   1.000  N
  N3       1.0000 0.09187  0.40407  0.59192  Biso   1.000  N
  N4       1.0000 0.59232  0.09587  0.40799  Biso   1.000  N
  H37      1.0000 0.92949  0.71670  0.40069  Biso   1.000  H
  H38      1.0000 0.43005  0.78275  0.59913  Biso   1.000  H
  H39      1.0000 0.07124  0.28294  0.59927  Biso   1.000  H
  H40      1.0000 0.57164  0.21700  0.40063  Biso   1.000  H
  H41      1.0000 0.92176  0.58304  0.44135  Biso   1.000  H
  H42      1.0000 0.42256  0.91645  0.55849  Biso   1.000  H
  H43      1.0000 0.07896  0.41660  0.55861  Biso   1.000  H
  H44      1.0000 0.57957  0.08337  0.44131  Biso   1.000  H
  H45      1.0000 0.79051  0.56720  0.40063  Biso   1.000  H
  H46      1.0000 0.29098  0.93212  0.59914  Biso   1.000  H
  H47      1.0000 0.21023  0.43247  0.59932  Biso   1.000  H
  H48      1.0000 0.71069  0.06753  0.40056  Biso   1.000  H
  Br1      1.0000 0.48320  0.50430  0.60456  Biso   1.000  Br
  Br2      1.0000 0.98344  0.99516  0.39530  Biso   1.000  Br
  Br3      1.0000 0.51749  0.49533  0.39527  Biso   1.000  Br
  Br4      1.0000 0.01779  0.00438  0.60459  Biso   1.000  Br
  I1       1.0000 0.66835  0.83318  0.50030  Biso   1.000  I
  I2       1.0000 0.16827  0.66675  0.49964  Biso   1.000  I
  I3       1.0000 0.33193  0.16676  0.49960  Biso   1.000  I
  I4       1.0000 0.83187  0.33320  0.50037  Biso   1.000  I
  Pb1      1.0000 0.50006  0.49995  0.49995  Biso   1.000  Pb
  Pb2      1.0000 0.00016  0.00001  0.49999  Biso   1.000  Pb
