data_image0
_cell_length_a       8.07938
_cell_length_b       7.75433
_cell_length_c       30.7414
_cell_angle_alpha    90
_cell_angle_beta     90
_cell_angle_gamma    90

_symmetry_space_group_name_H-M    "P 1"
_symmetry_int_tables_number       1

loop_
  _symmetry_equiv_pos_as_xyz
  'x, y, z'

loop_
  _atom_site_label
  _atom_site_occupancy
  _atom_site_fract_x
  _atom_site_fract_y
  _atom_site_fract_z
  _atom_site_thermal_displace_type
  _atom_site_B_iso_or_equiv
  _atom_site_type_symbol
  C1       1.0000 0.08448  0.46810  0.39058  Biso   1.000  C
  C2       1.0000 0.58657  0.03126  0.60977  Biso   1.000  C
  C3       1.0000 0.91535  0.53195  0.60952  Biso   1.000  C
  C4       1.0000 0.41337  0.96883  0.39025  Biso   1.000  C
  H1       1.0000 0.09743  0.33564  0.40184  Biso   1.000  H
  H2       1.0000 0.59947  0.16353  0.59838  Biso   1.000  H
  H3       1.0000 0.90240  0.66438  0.59825  Biso   1.000  H
  H4       1.0000 0.40046  0.83656  0.40164  Biso   1.000  H
  H5       1.0000 0.20233  0.53342  0.39497  Biso   1.000  H
  H6       1.0000 0.70456  0.96602  0.60560  Biso   1.000  H
  H7       1.0000 0.79751  0.46661  0.60515  Biso   1.000  H
  H8       1.0000 0.29537  0.03406  0.39441  Biso   1.000  H
  C5       1.0000 0.02595  0.47623  0.34352  Biso   1.000  C
  C6       1.0000 0.52722  0.02377  0.65676  Biso   1.000  C
  C7       1.0000 0.97393  0.52392  0.65658  Biso   1.000  C
  C8       1.0000 0.47279  0.97629  0.34327  Biso   1.000  C
  H9       1.0000 0.01710  0.61143  0.33342  Biso   1.000  H
  H10      1.0000 0.51800  0.88871  0.66695  Biso   1.000  H
  H11      1.0000 0.98284  0.38874  0.66669  Biso   1.000  H
  H12      1.0000 0.48209  0.11134  0.33307  Biso   1.000  H
  H13      1.0000 0.90152  0.42150  0.34106  Biso   1.000  H
  H14      1.0000 0.40283  0.07875  0.65904  Biso   1.000  H
  H15      1.0000 0.09835  0.57870  0.65902  Biso   1.000  H
  H16      1.0000 0.59717  0.92126  0.34100  Biso   1.000  H
  C9       1.0000 0.14264  0.37823  0.31293  Biso   1.000  C
  C10      1.0000 0.64370  0.12192  0.68735  Biso   1.000  C
  C11      1.0000 0.85725  0.62193  0.68717  Biso   1.000  C
  C12      1.0000 0.35632  0.87817  0.31266  Biso   1.000  C
  H17      1.0000 0.14397  0.24226  0.32239  Biso   1.000  H
  H18      1.0000 0.64536  0.25777  0.67778  Biso   1.000  H
  H19      1.0000 0.85592  0.75788  0.67770  Biso   1.000  H
  H20      1.0000 0.35461  0.74233  0.32223  Biso   1.000  H
  H21      1.0000 0.26923  0.42566  0.31691  Biso   1.000  H
  H22      1.0000 0.77024  0.07420  0.68346  Biso   1.000  H
  H23      1.0000 0.73065  0.57449  0.68319  Biso   1.000  H
  H24      1.0000 0.22979  0.92593  0.31654  Biso   1.000  H
  C13      1.0000 0.09070  0.39399  0.26528  Biso   1.000  C
  C14      1.0000 0.59139  0.10692  0.73498  Biso   1.000  C
  C15      1.0000 0.90924  0.60623  0.73482  Biso   1.000  C
  C16      1.0000 0.40871  0.89315  0.26503  Biso   1.000  C
  H25      1.0000 0.96471  0.34625  0.26039  Biso   1.000  H
  H26      1.0000 0.46539  0.15481  0.73977  Biso   1.000  H
  H27      1.0000 0.03523  0.65399  0.73969  Biso   1.000  H
  H28      1.0000 0.53469  0.84518  0.26026  Biso   1.000  H
  H29      1.0000 0.17301  0.31986  0.24416  Biso   1.000  H
  H30      1.0000 0.67368  0.18138  0.75603  Biso   1.000  H
  H31      1.0000 0.82695  0.68041  0.75593  Biso   1.000  H
  H32      1.0000 0.32642  0.81876  0.24397  Biso   1.000  H
  H33      1.0000 0.09414  0.52838  0.25449  Biso   1.000  H
  H34      1.0000 0.59478  0.97267  0.74588  Biso   1.000  H
  H35      1.0000 0.90582  0.47185  0.74562  Biso   1.000  H
  H36      1.0000 0.40545  0.02741  0.25413  Biso   1.000  H
  N1       1.0000 0.96467  0.55396  0.42081  Biso   1.000  N
  N2       1.0000 0.46776  0.94463  0.57947  Biso   1.000  N
  N3       1.0000 0.03515  0.44607  0.57930  Biso   1.000  N
  N4       1.0000 0.53216  0.05546  0.42056  Biso   1.000  N
  H37      1.0000 0.94852  0.68192  0.41211  Biso   1.000  H
  H38      1.0000 0.45180  0.81669  0.58826  Biso   1.000  H
  H39      1.0000 0.05133  0.31811  0.58800  Biso   1.000  H
  H40      1.0000 0.54812  0.18340  0.41176  Biso   1.000  H
  H41      1.0000 0.00886  0.55370  0.45203  Biso   1.000  H
  H42      1.0000 0.51288  0.94411  0.54832  Biso   1.000  H
  H43      1.0000 0.99094  0.44626  0.54807  Biso   1.000  H
  H44      1.0000 0.48700  0.05600  0.45171  Biso   1.000  H
  H45      1.0000 0.84966  0.49710  0.41995  Biso   1.000  H
  H46      1.0000 0.35238  0.00085  0.57996  Biso   1.000  H
  H47      1.0000 0.15017  0.50293  0.58014  Biso   1.000  H
  H48      1.0000 0.64753  0.99923  0.42007  Biso   1.000  H
  I1       1.0000 0.44586  0.50892  0.60748  Biso   1.000  I
  I2       1.0000 0.94432  0.99069  0.39277  Biso   1.000  I
  I3       1.0000 0.55412  0.49122  0.39258  Biso   1.000  I
  I4       1.0000 0.05557  0.00941  0.60730  Biso   1.000  I
  Cl1      1.0000 0.69928  0.80538  0.50237  Biso   1.000  Cl
  Cl2      1.0000 0.19892  0.69417  0.49747  Biso   1.000  Cl
  Cl3      1.0000 0.30072  0.19443  0.49765  Biso   1.000  Cl
  Cl4      1.0000 0.80101  0.30579  0.50255  Biso   1.000  Cl
  Pb1      1.0000 0.49994  0.49999  0.50002  Biso   1.000  Pb
  Pb2      1.0000 0.99995  1.00000  0.50001  Biso   1.000  Pb
