data_image0
_cell_length_a       4.21376
_cell_length_b       4.21776
_cell_length_c       18.8558
_cell_angle_alpha    90
_cell_angle_beta     90
_cell_angle_gamma    119.969

_symmetry_space_group_name_H-M    "P 1"
_symmetry_int_tables_number       1

loop_
  _symmetry_equiv_pos_as_xyz
  'x, y, z'

loop_
  _atom_site_label
  _atom_site_occupancy
  _atom_site_fract_x
  _atom_site_fract_y
  _atom_site_fract_z
  _atom_site_thermal_displace_type
  _atom_site_B_iso_or_equiv
  _atom_site_type_symbol
  Cl1      1.0000 0.99995  0.00045  0.34539  Biso   1.000  Cl
  Cl2      1.0000 0.33338  0.66622  0.65468  Biso   1.000  Cl
  Pb1      1.0000 0.99990  0.00024  0.57258  Biso   1.000  Pb
  Pb2      1.0000 0.33343  0.66643  0.42748  Biso   1.000  Pb
