data_image0
_cell_length_a       8.33874
_cell_length_b       8.18765
_cell_length_c       30.2928
_cell_angle_alpha    90
_cell_angle_beta     90
_cell_angle_gamma    90

_symmetry_space_group_name_H-M    "P 1"
_symmetry_int_tables_number       1

loop_
  _symmetry_equiv_pos_as_xyz
  'x, y, z'

loop_
  _atom_site_label
  _atom_site_occupancy
  _atom_site_fract_x
  _atom_site_fract_y
  _atom_site_fract_z
  _atom_site_thermal_displace_type
  _atom_site_B_iso_or_equiv
  _atom_site_type_symbol
  C1       1.0000 0.01264  0.49522  0.38627  Biso   1.000  C
  C2       1.0000 0.51259  0.00474  0.61332  Biso   1.000  C
  C3       1.0000 0.98638  0.50495  0.61313  Biso   1.000  C
  C4       1.0000 0.48611  0.99513  0.38645  Biso   1.000  C
  H1       1.0000 0.98861  0.37099  0.39748  Biso   1.000  H
  H2       1.0000 0.48883  0.12910  0.60217  Biso   1.000  H
  H3       1.0000 0.01013  0.62931  0.60197  Biso   1.000  H
  H4       1.0000 0.51000  0.87090  0.39768  Biso   1.000  H
  H5       1.0000 0.13208  0.52977  0.39757  Biso   1.000  H
  H6       1.0000 0.63212  0.97003  0.60214  Biso   1.000  H
  H7       1.0000 0.86687  0.47034  0.60190  Biso   1.000  H
  H8       1.0000 0.36678  0.02989  0.39779  Biso   1.000  H
  C5       1.0000 0.99779  0.50977  0.33646  Biso   1.000  C
  C6       1.0000 0.49707  0.98979  0.66313  Biso   1.000  C
  C7       1.0000 0.00159  0.48983  0.66294  Biso   1.000  C
  C8       1.0000 0.50067  0.00955  0.33662  Biso   1.000  C
  H9       1.0000 0.02088  0.63644  0.32649  Biso   1.000  H
  H10      1.0000 0.51997  0.86304  0.67306  Biso   1.000  H
  H11      1.0000 0.97888  0.36295  0.67280  Biso   1.000  H
  H12      1.0000 0.47768  0.13624  0.32665  Biso   1.000  H
  H13      1.0000 0.87468  0.48050  0.32638  Biso   1.000  H
  H14      1.0000 0.37392  0.01915  0.67313  Biso   1.000  H
  H15      1.0000 0.12472  0.51923  0.67298  Biso   1.000  H
  H16      1.0000 0.62367  0.98009  0.32649  Biso   1.000  H
  C9       1.0000 0.11609  0.39472  0.31342  Biso   1.000  C
  C10      1.0000 0.61525  0.10439  0.68640  Biso   1.000  C
  C11      1.0000 0.88303  0.60415  0.68620  Biso   1.000  C
  C12      1.0000 0.38206  0.89466  0.31360  Biso   1.000  C
  H17      1.0000 0.09216  0.26924  0.32417  Biso   1.000  H
  H18      1.0000 0.59178  0.23003  0.67571  Biso   1.000  H
  H19      1.0000 0.90632  0.72981  0.67547  Biso   1.000  H
  H20      1.0000 0.40580  0.76917  0.32438  Biso   1.000  H
  H21      1.0000 0.23793  0.42407  0.32440  Biso   1.000  H
  H22      1.0000 0.73724  0.07498  0.67555  Biso   1.000  H
  H23      1.0000 0.76118  0.57432  0.67529  Biso   1.000  H
  H24      1.0000 0.26020  0.92421  0.32455  Biso   1.000  H
  C13      1.0000 0.10606  0.40529  0.26316  Biso   1.000  C
  C14      1.0000 0.60449  0.09322  0.73665  Biso   1.000  C
  C15      1.0000 0.89383  0.59307  0.73645  Biso   1.000  C
  C16      1.0000 0.39219  0.90510  0.26333  Biso   1.000  C
  H25      1.0000 0.98602  0.37358  0.25142  Biso   1.000  H
  H26      1.0000 0.48422  0.12484  0.74824  Biso   1.000  H
  H27      1.0000 0.01394  0.62514  0.74805  Biso   1.000  H
  H28      1.0000 0.51233  0.87330  0.25167  Biso   1.000  H
  H29      1.0000 0.19120  0.32182  0.24758  Biso   1.000  H
  H30      1.0000 0.68933  0.17650  0.75242  Biso   1.000  H
  H31      1.0000 0.80853  0.67590  0.75220  Biso   1.000  H
  H32      1.0000 0.30723  0.82155  0.24772  Biso   1.000  H
  H33      1.0000 0.13311  0.52881  0.25158  Biso   1.000  H
  H34      1.0000 0.63125  0.96952  0.74813  Biso   1.000  H
  H35      1.0000 0.86748  0.46924  0.74790  Biso   1.000  H
  H36      1.0000 0.36524  0.02859  0.25172  Biso   1.000  H
  N1       1.0000 0.89584  0.60459  0.40948  Biso   1.000  N
  N2       1.0000 0.39592  0.89560  0.58990  Biso   1.000  N
  N3       1.0000 0.10314  0.39575  0.58975  Biso   1.000  N
  N4       1.0000 0.60314  0.10457  0.40957  Biso   1.000  N
  H37      1.0000 0.91524  0.72671  0.40216  Biso   1.000  H
  H38      1.0000 0.41511  0.77350  0.59728  Biso   1.000  H
  H39      1.0000 0.08368  0.27366  0.59708  Biso   1.000  H
  H40      1.0000 0.58371  0.22663  0.40218  Biso   1.000  H
  H41      1.0000 0.91019  0.59250  0.44294  Biso   1.000  H
  H42      1.0000 0.41061  0.90782  0.55648  Biso   1.000  H
  H43      1.0000 0.08846  0.40802  0.55632  Biso   1.000  H
  H44      1.0000 0.58899  0.09269  0.44303  Biso   1.000  H
  H45      1.0000 0.77780  0.57378  0.40256  Biso   1.000  H
  H46      1.0000 0.27787  0.92646  0.59684  Biso   1.000  H
  H47      1.0000 0.22118  0.42650  0.59670  Biso   1.000  H
  H48      1.0000 0.72111  0.07363  0.40258  Biso   1.000  H
  Cl1      1.0000 0.47133  0.50906  0.60002  Biso   1.000  Cl
  Cl2      1.0000 0.97177  0.99105  0.39942  Biso   1.000  Cl
  Cl3      1.0000 0.52684  0.49109  0.39943  Biso   1.000  Cl
  Cl4      1.0000 0.02739  0.00892  0.60009  Biso   1.000  Cl
  I1       1.0000 0.67127  0.83246  0.50225  Biso   1.000  I
  I2       1.0000 0.17171  0.66816  0.49688  Biso   1.000  I
  I3       1.0000 0.32799  0.16815  0.49722  Biso   1.000  I
  I4       1.0000 0.82845  0.33242  0.50215  Biso   1.000  I
  Pb1      1.0000 0.49995  0.50003  0.49988  Biso   1.000  Pb
  Pb2      1.0000 0.99976  0.99995  0.49985  Biso   1.000  Pb
