data_image0
_cell_length_a       8.3819
_cell_length_b       8.36191
_cell_length_c       31.2521
_cell_angle_alpha    90
_cell_angle_beta     90
_cell_angle_gamma    90

_symmetry_space_group_name_H-M    "P 1"
_symmetry_int_tables_number       1

loop_
  _symmetry_equiv_pos_as_xyz
  'x, y, z'

loop_
  _atom_site_label
  _atom_site_occupancy
  _atom_site_fract_x
  _atom_site_fract_y
  _atom_site_fract_z
  _atom_site_thermal_displace_type
  _atom_site_B_iso_or_equiv
  _atom_site_type_symbol
  C1       1.0000 0.02600  0.48519  0.38178  Biso   1.000  C
  C2       1.0000 0.52615  0.01460  0.61834  Biso   1.000  C
  C3       1.0000 0.97395  0.51503  0.61842  Biso   1.000  C
  C4       1.0000 0.47395  0.98474  0.38166  Biso   1.000  C
  H1       1.0000 0.00218  0.36105  0.39026  Biso   1.000  H
  H2       1.0000 0.50257  0.13874  0.60983  Biso   1.000  H
  H3       1.0000 0.99784  0.63912  0.60992  Biso   1.000  H
  H4       1.0000 0.49798  0.86064  0.39013  Biso   1.000  H
  H5       1.0000 0.14782  0.51392  0.39121  Biso   1.000  H
  H6       1.0000 0.64792  0.98555  0.60895  Biso   1.000  H
  H7       1.0000 0.85214  0.48626  0.60901  Biso   1.000  H
  H8       1.0000 0.35211  0.01334  0.39107  Biso   1.000  H
  C5       1.0000 0.99844  0.51574  0.33435  Biso   1.000  C
  C6       1.0000 0.49848  0.98425  0.66579  Biso   1.000  C
  C7       1.0000 0.00142  0.48461  0.66588  Biso   1.000  C
  C8       1.0000 0.50143  0.01536  0.33422  Biso   1.000  C
  H9       1.0000 0.02030  0.64228  0.32723  Biso   1.000  H
  H10      1.0000 0.52015  0.85769  0.67294  Biso   1.000  H
  H11      1.0000 0.97982  0.35804  0.67302  Biso   1.000  H
  H12      1.0000 0.47952  0.14190  0.32710  Biso   1.000  H
  H13      1.0000 0.87330  0.49136  0.32640  Biso   1.000  H
  H14      1.0000 0.37336  0.00878  0.67374  Biso   1.000  H
  H15      1.0000 0.12648  0.50924  0.67388  Biso   1.000  H
  H16      1.0000 0.62657  0.99105  0.32625  Biso   1.000  H
  C9       1.0000 0.10792  0.41079  0.30686  Biso   1.000  C
  C10      1.0000 0.60813  0.08914  0.69327  Biso   1.000  C
  C11      1.0000 0.89159  0.58942  0.69334  Biso   1.000  C
  C12      1.0000 0.39196  0.91035  0.30672  Biso   1.000  C
  H17      1.0000 0.08565  0.28490  0.31449  Biso   1.000  H
  H18      1.0000 0.58603  0.21504  0.68562  Biso   1.000  H
  H19      1.0000 0.91356  0.71536  0.68571  Biso   1.000  H
  H20      1.0000 0.41430  0.78445  0.31432  Biso   1.000  H
  H21      1.0000 0.23216  0.43491  0.31553  Biso   1.000  H
  H22      1.0000 0.73231  0.06481  0.68460  Biso   1.000  H
  H23      1.0000 0.76746  0.56494  0.68466  Biso   1.000  H
  H24      1.0000 0.26771  0.93443  0.31537  Biso   1.000  H
  C13      1.0000 0.08421  0.43904  0.25900  Biso   1.000  C
  C14      1.0000 0.58451  0.06112  0.74115  Biso   1.000  C
  C15      1.0000 0.91513  0.56144  0.74123  Biso   1.000  C
  C16      1.0000 0.41571  0.93861  0.25885  Biso   1.000  C
  H25      1.0000 0.96141  0.41297  0.24946  Biso   1.000  H
  H26      1.0000 0.46177  0.08721  0.75074  Biso   1.000  H
  H27      1.0000 0.03772  0.58790  0.75089  Biso   1.000  H
  H28      1.0000 0.53850  0.91259  0.24929  Biso   1.000  H
  H29      1.0000 0.16336  0.36271  0.24016  Biso   1.000  H
  H30      1.0000 0.66369  0.13757  0.75994  Biso   1.000  H
  H31      1.0000 0.83570  0.63766  0.76002  Biso   1.000  H
  H32      1.0000 0.33665  0.86226  0.23998  Biso   1.000  H
  H33      1.0000 0.10958  0.56344  0.25054  Biso   1.000  H
  H34      1.0000 0.60996  0.93678  0.74966  Biso   1.000  H
  H35      1.0000 0.89002  0.43702  0.74973  Biso   1.000  H
  H36      1.0000 0.39031  0.06299  0.25038  Biso   1.000  H
  N1       1.0000 0.91815  0.58607  0.40890  Biso   1.000  N
  N2       1.0000 0.41821  0.91377  0.59125  Biso   1.000  N
  N3       1.0000 0.08173  0.41397  0.59134  Biso   1.000  N
  N4       1.0000 0.58163  0.08578  0.40877  Biso   1.000  N
  H37      1.0000 0.93816  0.70669  0.40372  Biso   1.000  H
  H38      1.0000 0.43817  0.79313  0.59641  Biso   1.000  H
  H39      1.0000 0.06167  0.29337  0.59653  Biso   1.000  H
  H40      1.0000 0.56157  0.20638  0.40357  Biso   1.000  H
  H41      1.0000 0.93790  0.56344  0.44072  Biso   1.000  H
  H42      1.0000 0.43781  0.93637  0.55942  Biso   1.000  H
  H43      1.0000 0.06214  0.43650  0.55951  Biso   1.000  H
  H44      1.0000 0.56189  0.06327  0.44059  Biso   1.000  H
  H45      1.0000 0.79923  0.56210  0.40273  Biso   1.000  H
  H46      1.0000 0.29930  0.93776  0.59744  Biso   1.000  H
  H47      1.0000 0.20067  0.43785  0.59752  Biso   1.000  H
  H48      1.0000 0.70060  0.06193  0.40262  Biso   1.000  H
  I1       1.0000 0.49371  0.50038  0.60746  Biso   1.000  I
  I2       1.0000 0.99354  0.99941  0.39251  Biso   1.000  I
  I3       1.0000 0.50654  0.49917  0.39249  Biso   1.000  I
  I4       1.0000 0.00645  0.00061  0.60749  Biso   1.000  I
  I5       1.0000 0.66939  0.83072  0.49899  Biso   1.000  I
  I6       1.0000 0.16937  0.66908  0.50112  Biso   1.000  I
  I7       1.0000 0.33091  0.16875  0.50098  Biso   1.000  I
  I8       1.0000 0.83088  0.33103  0.49915  Biso   1.000  I
  Pb1      1.0000 0.49996  0.49985  0.49996  Biso   1.000  Pb
  Pb2      1.0000 1.00000  0.00003  0.49998  Biso   1.000  Pb
