data_image0
_cell_length_a       7.80981
_cell_length_b       7.73315
_cell_length_c       29.7245
_cell_angle_alpha    90
_cell_angle_beta     90
_cell_angle_gamma    90

_symmetry_space_group_name_H-M    "P 1"
_symmetry_int_tables_number       1

loop_
  _symmetry_equiv_pos_as_xyz
  'x, y, z'

loop_
  _atom_site_label
  _atom_site_occupancy
  _atom_site_fract_x
  _atom_site_fract_y
  _atom_site_fract_z
  _atom_site_thermal_displace_type
  _atom_site_B_iso_or_equiv
  _atom_site_type_symbol
  C1       1.0000 0.03743  0.47065  0.39569  Biso   1.000  C
  C2       1.0000 0.53884  0.02899  0.60431  Biso   1.000  C
  C3       1.0000 0.96276  0.52959  0.60434  Biso   1.000  C
  C4       1.0000 0.46150  0.97123  0.39572  Biso   1.000  C
  H1       1.0000 0.01344  0.33926  0.40713  Biso   1.000  H
  H2       1.0000 0.51478  0.16027  0.59277  Biso   1.000  H
  H3       1.0000 0.98675  0.66095  0.59287  Biso   1.000  H
  H4       1.0000 0.48547  0.83991  0.40723  Biso   1.000  H
  H5       1.0000 0.16573  0.50812  0.40605  Biso   1.000  H
  H6       1.0000 0.66727  0.99153  0.59403  Biso   1.000  H
  H7       1.0000 0.83449  0.49209  0.59395  Biso   1.000  H
  H8       1.0000 0.33305  0.00870  0.40597  Biso   1.000  H
  C5       1.0000 0.01450  0.48629  0.34508  Biso   1.000  C
  C6       1.0000 0.51548  0.01383  0.65491  Biso   1.000  C
  C7       1.0000 0.98551  0.51407  0.65495  Biso   1.000  C
  C8       1.0000 0.48503  0.98655  0.34512  Biso   1.000  C
  H9       1.0000 0.03647  0.62045  0.33475  Biso   1.000  H
  H10      1.0000 0.53722  0.87973  0.66532  Biso   1.000  H
  H11      1.0000 0.96360  0.37992  0.66530  Biso   1.000  H
  H12      1.0000 0.46322  0.12065  0.33473  Biso   1.000  H
  H13      1.0000 0.88221  0.45406  0.33602  Biso   1.000  H
  H14      1.0000 0.38310  0.04610  0.66388  Biso   1.000  H
  H15      1.0000 0.11775  0.54642  0.66403  Biso   1.000  H
  H16      1.0000 0.61742  0.95428  0.33616  Biso   1.000  H
  C9       1.0000 0.13870  0.36606  0.32042  Biso   1.000  C
  C10      1.0000 0.63948  0.13428  0.67960  Biso   1.000  C
  C11      1.0000 0.86117  0.63431  0.67957  Biso   1.000  C
  C12      1.0000 0.36108  0.86621  0.32040  Biso   1.000  C
  H17      1.0000 0.11516  0.23313  0.33136  Biso   1.000  H
  H18      1.0000 0.61576  0.26713  0.66861  Biso   1.000  H
  H19      1.0000 0.88471  0.76722  0.66861  Biso   1.000  H
  H20      1.0000 0.38464  0.73331  0.33137  Biso   1.000  H
  H21      1.0000 0.26957  0.39793  0.33055  Biso   1.000  H
  H22      1.0000 0.77042  0.10248  0.66954  Biso   1.000  H
  H23      1.0000 0.73034  0.60235  0.66943  Biso   1.000  H
  H24      1.0000 0.23011  0.89801  0.33045  Biso   1.000  H
  C13      1.0000 0.12126  0.37905  0.26940  Biso   1.000  C
  C14      1.0000 0.62165  0.12142  0.73062  Biso   1.000  C
  C15      1.0000 0.87852  0.62143  0.73060  Biso   1.000  C
  C16      1.0000 0.37891  0.87914  0.26939  Biso   1.000  C
  H25      1.0000 0.99182  0.34462  0.25866  Biso   1.000  H
  H26      1.0000 0.49212  0.15575  0.74130  Biso   1.000  H
  H27      1.0000 0.00790  0.65596  0.74135  Biso   1.000  H
  H28      1.0000 0.50844  0.84478  0.25871  Biso   1.000  H
  H29      1.0000 0.21085  0.29263  0.25237  Biso   1.000  H
  H30      1.0000 0.71105  0.20794  0.74768  Biso   1.000  H
  H31      1.0000 0.78883  0.70779  0.74761  Biso   1.000  H
  H32      1.0000 0.28951  0.79265  0.25232  Biso   1.000  H
  H33      1.0000 0.14712  0.51060  0.25786  Biso   1.000  H
  H34      1.0000 0.64755  0.98993  0.74219  Biso   1.000  H
  H35      1.0000 0.85272  0.48989  0.74215  Biso   1.000  H
  H36      1.0000 0.35307  0.01066  0.25782  Biso   1.000  H
  N1       1.0000 0.91514  0.58552  0.42016  Biso   1.000  N
  N2       1.0000 0.41673  0.91388  0.57983  Biso   1.000  N
  N3       1.0000 0.08513  0.41464  0.57991  Biso   1.000  N
  N4       1.0000 0.58354  0.08619  0.42026  Biso   1.000  N
  H37      1.0000 0.93456  0.71420  0.41214  Biso   1.000  H
  H38      1.0000 0.43595  0.78532  0.58799  Biso   1.000  H
  H39      1.0000 0.06568  0.28598  0.58794  Biso   1.000  H
  H40      1.0000 0.56433  0.21478  0.41211  Biso   1.000  H
  H41      1.0000 0.93144  0.57220  0.45406  Biso   1.000  H
  H42      1.0000 0.43342  0.92660  0.54591  Biso   1.000  H
  H43      1.0000 0.06891  0.42789  0.54600  Biso   1.000  H
  H44      1.0000 0.56674  0.07341  0.45417  Biso   1.000  H
  H45      1.0000 0.78956  0.55411  0.41270  Biso   1.000  H
  H46      1.0000 0.29109  0.94556  0.58715  Biso   1.000  H
  H47      1.0000 0.21071  0.44607  0.58738  Biso   1.000  H
  H48      1.0000 0.70918  0.05456  0.41294  Biso   1.000  H
  Cl1      1.0000 0.47342  0.51354  0.59859  Biso   1.000  Cl
  Cl2      1.0000 0.97223  0.98583  0.40147  Biso   1.000  Cl
  Cl3      1.0000 0.52673  0.48650  0.40143  Biso   1.000  Cl
  Cl4      1.0000 0.02795  0.01431  0.59857  Biso   1.000  Cl
  Cl5      1.0000 0.68186  0.81954  0.50060  Biso   1.000  Cl
  Cl6      1.0000 0.18188  0.68068  0.49925  Biso   1.000  Cl
  Cl7      1.0000 0.31863  0.18066  0.49957  Biso   1.000  Cl
  Cl8      1.0000 0.81835  0.31931  0.50077  Biso   1.000  Cl
  Pb1      1.0000 0.50015  0.50009  0.50003  Biso   1.000  Pb
  Pb2      1.0000 0.00017  0.00008  0.50003  Biso   1.000  Pb
