data_image0
_cell_length_a       3.85292
_cell_length_b       3.85724
_cell_length_c       18.8558
_cell_angle_alpha    90
_cell_angle_beta     90
_cell_angle_gamma    119.963

_symmetry_space_group_name_H-M    "P 1"
_symmetry_int_tables_number       1

loop_
  _symmetry_equiv_pos_as_xyz
  'x, y, z'

loop_
  _atom_site_label
  _atom_site_occupancy
  _atom_site_fract_x
  _atom_site_fract_y
  _atom_site_fract_z
  _atom_site_thermal_displace_type
  _atom_site_B_iso_or_equiv
  _atom_site_type_symbol
  F1       1.0000 0.00010  0.00047  0.36648  Biso   1.000  F
  F2       1.0000 0.33323  0.66620  0.63360  Biso   1.000  F
  Pb1      1.0000 0.00012  0.00001  0.57708  Biso   1.000  Pb
  Pb2      1.0000 0.33321  0.66665  0.42300  Biso   1.000  Pb
