data_image0
_cell_length_a       7.59229
_cell_length_b       7.59397
_cell_length_c       18.4116
_cell_angle_alpha    90
_cell_angle_beta     90
_cell_angle_gamma    119.993

_symmetry_space_group_name_H-M    "P 1"
_symmetry_int_tables_number       1

loop_
  _symmetry_equiv_pos_as_xyz
  'x, y, z'

loop_
  _atom_site_label
  _atom_site_occupancy
  _atom_site_fract_x
  _atom_site_fract_y
  _atom_site_fract_z
  _atom_site_thermal_displace_type
  _atom_site_B_iso_or_equiv
  _atom_site_type_symbol
  Pb1      1.0000 0.00003  0.99995  0.50040  Biso   1.000  Pb
  Pb2      1.0000 0.33331  0.66673  0.49961  Biso   1.000  Pb
  P1       1.0000 0.66670  0.33335  0.43738  Biso   1.000  P
  P2       1.0000 0.66663  0.33332  0.56259  Biso   1.000  P
  Te1      1.0000 0.35999  0.02802  0.39390  Biso   1.000  Te
  Te2      1.0000 0.97213  0.33199  0.39396  Biso   1.000  Te
  Te3      1.0000 0.66800  0.64001  0.39393  Biso   1.000  Te
  Te4      1.0000 0.97337  0.63858  0.60610  Biso   1.000  Te
  Te5      1.0000 0.36129  0.33480  0.60604  Biso   1.000  Te
  Te6      1.0000 0.66524  0.02665  0.60607  Biso   1.000  Te
