data_image0
_cell_length_a       7.12117
_cell_length_b       7.12285
_cell_length_c       18.4116
_cell_angle_alpha    90
_cell_angle_beta     90
_cell_angle_gamma    119.992

_symmetry_space_group_name_H-M    "P 1"
_symmetry_int_tables_number       1

loop_
  _symmetry_equiv_pos_as_xyz
  'x, y, z'

loop_
  _atom_site_label
  _atom_site_occupancy
  _atom_site_fract_x
  _atom_site_fract_y
  _atom_site_fract_z
  _atom_site_thermal_displace_type
  _atom_site_B_iso_or_equiv
  _atom_site_type_symbol
  Pb1      1.0000 0.00004  0.99995  0.50034  Biso   1.000  Pb
  Pb2      1.0000 0.33330  0.66673  0.49971  Biso   1.000  Pb
  P1       1.0000 0.66670  0.33335  0.43788  Biso   1.000  P
  P2       1.0000 0.66664  0.33332  0.56209  Biso   1.000  P
  Se1      1.0000 0.37087  0.03848  0.40005  Biso   1.000  Se
  Se2      1.0000 0.96167  0.33242  0.40011  Biso   1.000  Se
  Se3      1.0000 0.66759  0.62913  0.40008  Biso   1.000  Se
  Se4      1.0000 0.96250  0.62811  0.59996  Biso   1.000  Se
  Se5      1.0000 0.37176  0.33439  0.59990  Biso   1.000  Se
  Se6      1.0000 0.66563  0.03752  0.59993  Biso   1.000  Se
