data_image0
_cell_length_a       5.54314
_cell_length_b       6.38393
_cell_length_c       16.3627
_cell_angle_alpha    90
_cell_angle_beta     90
_cell_angle_gamma    90

_symmetry_space_group_name_H-M    "P 1"
_symmetry_int_tables_number       1

loop_
  _symmetry_equiv_pos_as_xyz
  'x, y, z'

loop_
  _atom_site_label
  _atom_site_occupancy
  _atom_site_fract_x
  _atom_site_fract_y
  _atom_site_fract_z
  _atom_site_thermal_displace_type
  _atom_site_B_iso_or_equiv
  _atom_site_type_symbol
  Pb1      1.0000 0.50000  0.00000  0.50000  Biso   1.000  Pb
  Pb2      1.0000 0.00000  0.50000  0.50000  Biso   1.000  Pb
  S1       1.0000 0.99994  0.05836  0.43943  Biso   1.000  S
  S2       1.0000 0.49994  0.44164  0.56057  Biso   1.000  S
  S3       1.0000 0.00006  0.94164  0.56057  Biso   1.000  S
  S4       1.0000 0.50006  0.55836  0.43943  Biso   1.000  S
