data_image0
_cell_length_a       4.2429
_cell_length_b       4.24104
_cell_length_c       17.1098
_cell_angle_alpha    90
_cell_angle_beta     90
_cell_angle_gamma    90

_symmetry_space_group_name_H-M    "P 1"
_symmetry_int_tables_number       1

loop_
  _symmetry_equiv_pos_as_xyz
  'x, y, z'

loop_
  _atom_site_label
  _atom_site_occupancy
  _atom_site_fract_x
  _atom_site_fract_y
  _atom_site_fract_z
  _atom_site_thermal_displace_type
  _atom_site_B_iso_or_equiv
  _atom_site_type_symbol
  S1       1.0000 0.09997  0.99988  0.42547  Biso   1.000  S
  S2       1.0000 0.59984  0.49994  0.57452  Biso   1.000  S
  Pb1      1.0000 0.09465  0.99989  0.58244  Biso   1.000  Pb
  Pb2      1.0000 0.59459  0.49993  0.41754  Biso   1.000  Pb
