data_image0
_cell_length_a       3.80588
_cell_length_b       5.91187
_cell_length_c       17.6481
_cell_angle_alpha    90
_cell_angle_beta     90
_cell_angle_gamma    90

_symmetry_space_group_name_H-M    "P 1"
_symmetry_int_tables_number       1

loop_
  _symmetry_equiv_pos_as_xyz
  'x, y, z'

loop_
  _atom_site_label
  _atom_site_occupancy
  _atom_site_fract_x
  _atom_site_fract_y
  _atom_site_fract_z
  _atom_site_thermal_displace_type
  _atom_site_B_iso_or_equiv
  _atom_site_type_symbol
  Pb1      1.0000 0.00000  0.88728  0.56930  Biso   1.000  Pb
  Se1      1.0000 0.00000  0.38197  0.55734  Biso   1.000  Se
  Pb2      1.0000 0.50000  0.45061  0.43383  Biso   1.000  Pb
  Se2      1.0000 0.00000  0.84743  0.41644  Biso   1.000  Se
