data_image0
_cell_length_a       6.38343
_cell_length_b       4.79602
_cell_length_c       21.9491
_cell_angle_alpha    90
_cell_angle_beta     90
_cell_angle_gamma    90

_symmetry_space_group_name_H-M    "P 1"
_symmetry_int_tables_number       1

loop_
  _symmetry_equiv_pos_as_xyz
  'x, y, z'

loop_
  _atom_site_label
  _atom_site_occupancy
  _atom_site_fract_x
  _atom_site_fract_y
  _atom_site_fract_z
  _atom_site_thermal_displace_type
  _atom_site_B_iso_or_equiv
  _atom_site_type_symbol
  Pb1      1.0000 0.13555  0.21538  0.55756  Biso   1.000  Pb
  Pb2      1.0000 0.63631  0.71542  0.44245  Biso   1.000  Pb
  Te1      1.0000 0.62497  0.15895  0.55055  Biso   1.000  Te
  Te2      1.0000 0.14689  0.65892  0.44947  Biso   1.000  Te
  Te3      1.0000 0.61480  0.18377  0.34377  Biso   1.000  Te
  Te4      1.0000 0.15715  0.68371  0.65625  Biso   1.000  Te
  Te5      1.0000 0.19780  0.32029  0.34359  Biso   1.000  Te
  Te6      1.0000 0.57413  0.82022  0.65642  Biso   1.000  Te
