data_image0
_cell_length_a       5.95539
_cell_length_b       7.20979
_cell_length_c       16.6153
_cell_angle_alpha    90
_cell_angle_beta     90
_cell_angle_gamma    90

_symmetry_space_group_name_H-M    "P 1"
_symmetry_int_tables_number       1

loop_
  _symmetry_equiv_pos_as_xyz
  'x, y, z'

loop_
  _atom_site_label
  _atom_site_occupancy
  _atom_site_fract_x
  _atom_site_fract_y
  _atom_site_fract_z
  _atom_site_thermal_displace_type
  _atom_site_B_iso_or_equiv
  _atom_site_type_symbol
  Pb1      1.0000 0.50000  1.00000  0.50000  Biso   1.000  Pb
  Pb2      1.0000 0.00000  0.50000  0.50000  Biso   1.000  Pb
  Te1      1.0000 0.99996  0.07627  0.42378  Biso   1.000  Te
  Te2      1.0000 0.49996  0.42373  0.57622  Biso   1.000  Te
  Te3      1.0000 0.00004  0.92373  0.57622  Biso   1.000  Te
  Te4      1.0000 0.50004  0.57627  0.42378  Biso   1.000  Te
