data_image0
_cell_length_a       9.41643
_cell_length_b       9.41643
_cell_length_c       15
_cell_angle_alpha    90
_cell_angle_beta     90
_cell_angle_gamma    60.1681

_symmetry_space_group_name_H-M    "P 1"
_symmetry_int_tables_number       1

loop_
  _symmetry_equiv_pos_as_xyz
  'x, y, z'

loop_
  _atom_site_label
  _atom_site_occupancy
  _atom_site_fract_x
  _atom_site_fract_y
  _atom_site_fract_z
  _atom_site_thermal_displace_type
  _atom_site_B_iso_or_equiv
  _atom_site_type_symbol
  Pb1      1.0000 0.03295  0.03295  0.50000  Biso   1.000  Pb
  N1       1.0000 0.16650  0.16650  0.50000  Biso   1.000  N
  Pb2      1.0000 0.43293  0.03343  0.50000  Biso   1.000  Pb
  Pb3      1.0000 0.03343  0.43293  0.50000  Biso   1.000  Pb
  Pb4      1.0000 0.63322  0.23372  0.50000  Biso   1.000  Pb
  Pb5      1.0000 0.23372  0.63322  0.50000  Biso   1.000  Pb
  N2       1.0000 0.50015  0.50015  0.50000  Biso   1.000  N
  Pb6      1.0000 0.63370  0.63370  0.50000  Biso   1.000  Pb
