data_image0
_cell_length_a       9.94298
_cell_length_b       9.94298
_cell_length_c       20
_cell_angle_alpha    90
_cell_angle_beta     90
_cell_angle_gamma    60.0706

_symmetry_space_group_name_H-M    "P 1"
_symmetry_int_tables_number       1

loop_
  _symmetry_equiv_pos_as_xyz
  'x, y, z'

loop_
  _atom_site_label
  _atom_site_occupancy
  _atom_site_fract_x
  _atom_site_fract_y
  _atom_site_fract_z
  _atom_site_thermal_displace_type
  _atom_site_B_iso_or_equiv
  _atom_site_type_symbol
  Pb1      1.0000 0.01664  0.01664  0.37500  Biso   1.000  Pb
  P1       1.0000 0.16666  0.16666  0.37500  Biso   1.000  P
  Pb2      1.0000 0.46633  0.01678  0.37500  Biso   1.000  Pb
  Pb3      1.0000 0.01678  0.46633  0.37500  Biso   1.000  Pb
  Pb4      1.0000 0.64988  0.20033  0.37500  Biso   1.000  Pb
  Pb5      1.0000 0.20033  0.64988  0.37500  Biso   1.000  Pb
  P2       1.0000 0.50001  0.50001  0.37500  Biso   1.000  P
  Pb6      1.0000 0.65003  0.65003  0.37500  Biso   1.000  Pb
