data_image0
_cell_length_a       3.71535
_cell_length_b       3.71879
_cell_length_c       18.8558
_cell_angle_alpha    90
_cell_angle_beta     90
_cell_angle_gamma    119.969

_symmetry_space_group_name_H-M    "P 1"
_symmetry_int_tables_number       1

loop_
  _symmetry_equiv_pos_as_xyz
  'x, y, z'

loop_
  _atom_site_label
  _atom_site_occupancy
  _atom_site_fract_x
  _atom_site_fract_y
  _atom_site_fract_z
  _atom_site_thermal_displace_type
  _atom_site_B_iso_or_equiv
  _atom_site_type_symbol
  Cl1      1.0000 0.99981  0.00041  0.38815  Biso   1.000  Cl
  Cl2      1.0000 0.33353  0.66626  0.61193  Biso   1.000  Cl
  Pd1      1.0000 0.99986  0.00045  0.54492  Biso   1.000  Pd
  Pd2      1.0000 0.33347  0.66622  0.45514  Biso   1.000  Pd
