data_image0
_cell_length_a       3.29443
_cell_length_b       3.29737
_cell_length_c       18.8558
_cell_angle_alpha    90
_cell_angle_beta     90
_cell_angle_gamma    119.97

_symmetry_space_group_name_H-M    "P 1"
_symmetry_int_tables_number       1

loop_
  _symmetry_equiv_pos_as_xyz
  'x, y, z'

loop_
  _atom_site_label
  _atom_site_occupancy
  _atom_site_fract_x
  _atom_site_fract_y
  _atom_site_fract_z
  _atom_site_thermal_displace_type
  _atom_site_B_iso_or_equiv
  _atom_site_type_symbol
  F1       1.0000 0.66663  0.33241  0.39711  Biso   1.000  F
  F2       1.0000 0.66682  0.33380  0.60298  Biso   1.000  F
  Pd1      1.0000 0.00015  0.00003  0.54291  Biso   1.000  Pd
  Pd2      1.0000 0.33332  0.66628  0.45718  Biso   1.000  Pd
