data_image0
_cell_length_a       4.20183
_cell_length_b       4.20431
_cell_length_c       18.8558
_cell_angle_alpha    90
_cell_angle_beta     90
_cell_angle_gamma    119.981

_symmetry_space_group_name_H-M    "P 1"
_symmetry_int_tables_number       1

loop_
  _symmetry_equiv_pos_as_xyz
  'x, y, z'

loop_
  _atom_site_label
  _atom_site_occupancy
  _atom_site_fract_x
  _atom_site_fract_y
  _atom_site_fract_z
  _atom_site_thermal_displace_type
  _atom_site_B_iso_or_equiv
  _atom_site_type_symbol
  I1       1.0000 0.00002  0.00013  0.39087  Biso   1.000  I
  I2       1.0000 0.33332  0.66654  0.60920  Biso   1.000  I
  Pd1      1.0000 0.99975  0.00041  0.54273  Biso   1.000  Pd
  Pd2      1.0000 0.33358  0.66626  0.45735  Biso   1.000  Pd
