data_image0
_cell_length_a       6.01033
_cell_length_b       6.01187
_cell_length_c       18.4116
_cell_angle_alpha    90
_cell_angle_beta     90
_cell_angle_gamma    119.991

_symmetry_space_group_name_H-M    "P 1"
_symmetry_int_tables_number       1

loop_
  _symmetry_equiv_pos_as_xyz
  'x, y, z'

loop_
  _atom_site_label
  _atom_site_occupancy
  _atom_site_fract_x
  _atom_site_fract_y
  _atom_site_fract_z
  _atom_site_thermal_displace_type
  _atom_site_B_iso_or_equiv
  _atom_site_type_symbol
  Pd1      1.0000 0.99999  1.00000  0.49997  Biso   1.000  Pd
  Pd2      1.0000 0.33335  0.66668  0.50006  Biso   1.000  Pd
  P1       1.0000 0.66661  0.33330  0.43953  Biso   1.000  P
  P2       1.0000 0.66673  0.33338  0.56046  Biso   1.000  P
  S1       1.0000 0.33533  0.00196  0.41450  Biso   1.000  S
  S2       1.0000 0.99791  0.33328  0.41447  Biso   1.000  S
  S3       1.0000 0.66646  0.66447  0.41448  Biso   1.000  S
  S4       1.0000 0.99808  0.66464  0.58550  Biso   1.000  S
  S5       1.0000 0.33551  0.33354  0.58553  Biso   1.000  S
  S6       1.0000 0.66673  0.00214  0.58552  Biso   1.000  S
