data_image0
_cell_length_a       6.83006
_cell_length_b       6.83174
_cell_length_c       18.4116
_cell_angle_alpha    90
_cell_angle_beta     90
_cell_angle_gamma    119.992

_symmetry_space_group_name_H-M    "P 1"
_symmetry_int_tables_number       1

loop_
  _symmetry_equiv_pos_as_xyz
  'x, y, z'

loop_
  _atom_site_label
  _atom_site_occupancy
  _atom_site_fract_x
  _atom_site_fract_y
  _atom_site_fract_z
  _atom_site_thermal_displace_type
  _atom_site_B_iso_or_equiv
  _atom_site_type_symbol
  Pd1      1.0000 0.00004  0.00002  0.50001  Biso   1.000  Pd
  Pd2      1.0000 0.33330  0.66666  0.49995  Biso   1.000  Pd
  P1       1.0000 0.66664  0.33333  0.43763  Biso   1.000  P
  P2       1.0000 0.66670  0.33335  0.56251  Biso   1.000  P
  Te1      1.0000 0.30860  0.97527  0.40834  Biso   1.000  Te
  Te2      1.0000 0.02459  0.33319  0.40834  Biso   1.000  Te
  Te3      1.0000 0.66661  0.69129  0.40834  Biso   1.000  Te
  Te4      1.0000 0.02494  0.69150  0.59163  Biso   1.000  Te
  Te5      1.0000 0.30866  0.33360  0.59163  Biso   1.000  Te
  Te6      1.0000 0.66662  0.97519  0.59164  Biso   1.000  Te
