data_image0
_cell_length_a       3.86652
_cell_length_b       3.87006
_cell_length_c       18.8558
_cell_angle_alpha    90
_cell_angle_beta     90
_cell_angle_gamma    119.97

_symmetry_space_group_name_H-M    "P 1"
_symmetry_int_tables_number       1

loop_
  _symmetry_equiv_pos_as_xyz
  'x, y, z'

loop_
  _atom_site_label
  _atom_site_occupancy
  _atom_site_fract_x
  _atom_site_fract_y
  _atom_site_fract_z
  _atom_site_thermal_displace_type
  _atom_site_B_iso_or_equiv
  _atom_site_type_symbol
  S1       1.0000 0.00006  0.00018  0.41258  Biso   1.000  S
  S2       1.0000 0.33327  0.66649  0.58748  Biso   1.000  S
  Pd1      1.0000 0.00006  0.00028  0.54517  Biso   1.000  Pd
  Pd2      1.0000 0.33328  0.66638  0.45491  Biso   1.000  Pd
