data_image0
_cell_length_a       3.7191
_cell_length_b       3.7191
_cell_length_c       19.2912
_cell_angle_alpha    90
_cell_angle_beta     90
_cell_angle_gamma    120

_symmetry_space_group_name_H-M    "P 1"
_symmetry_int_tables_number       1

loop_
  _symmetry_equiv_pos_as_xyz
  'x, y, z'

loop_
  _atom_site_label
  _atom_site_occupancy
  _atom_site_fract_x
  _atom_site_fract_y
  _atom_site_fract_z
  _atom_site_thermal_displace_type
  _atom_site_B_iso_or_equiv
  _atom_site_type_symbol
  Pd1      1.0000 0.33378  0.66760  0.57026  Biso   1.000  Pd
  S1       1.0000 0.66745  0.33475  0.38878  Biso   1.000  S
  S2       1.0000 0.00054  0.00126  0.61122  Biso   1.000  S
  Pd2      1.0000 0.33406  0.66809  0.42974  Biso   1.000  Pd
