data_image0
_cell_length_a       6.13918
_cell_length_b       6.4282
_cell_length_c       16.5885
_cell_angle_alpha    90
_cell_angle_beta     90
_cell_angle_gamma    90

_symmetry_space_group_name_H-M    "P 1"
_symmetry_int_tables_number       1

loop_
  _symmetry_equiv_pos_as_xyz
  'x, y, z'

loop_
  _atom_site_label
  _atom_site_occupancy
  _atom_site_fract_x
  _atom_site_fract_y
  _atom_site_fract_z
  _atom_site_thermal_displace_type
  _atom_site_B_iso_or_equiv
  _atom_site_type_symbol
  Pd1      1.0000 0.50000  1.00000  0.50000  Biso   1.000  Pd
  Pd2      1.0000 1.00000  0.50000  0.50000  Biso   1.000  Pd
  Te1      1.0000 0.11841  0.13146  0.44925  Biso   1.000  Te
  Te2      1.0000 0.61841  0.36854  0.55075  Biso   1.000  Te
  Te3      1.0000 0.88159  0.86854  0.55075  Biso   1.000  Te
  Te4      1.0000 0.38159  0.63146  0.44925  Biso   1.000  Te
