data_image0
_cell_length_a       3.56854
_cell_length_b       3.56996
_cell_length_c       18.8558
_cell_angle_alpha    90
_cell_angle_beta     90
_cell_angle_gamma    119.987

_symmetry_space_group_name_H-M    "P 1"
_symmetry_int_tables_number       1

loop_
  _symmetry_equiv_pos_as_xyz
  'x, y, z'

loop_
  _atom_site_label
  _atom_site_occupancy
  _atom_site_fract_x
  _atom_site_fract_y
  _atom_site_fract_z
  _atom_site_thermal_displace_type
  _atom_site_B_iso_or_equiv
  _atom_site_type_symbol
  Br1      1.0000 0.99931  0.00071  0.36417  Biso   1.000  Br
  Br2      1.0000 0.33402  0.66595  0.63591  Biso   1.000  Br
  Pt1      1.0000 0.99975  0.00035  0.54408  Biso   1.000  Pt
  Pt2      1.0000 0.33358  0.66632  0.45598  Biso   1.000  Pt
