data_image0
_cell_length_a       7.0065
_cell_length_b       7.0065
_cell_length_c       18.2845
_cell_angle_alpha    90
_cell_angle_beta     90
_cell_angle_gamma    120

_symmetry_space_group_name_H-M    "P 1"
_symmetry_int_tables_number       1

loop_
  _symmetry_equiv_pos_as_xyz
  'x, y, z'

loop_
  _atom_site_label
  _atom_site_occupancy
  _atom_site_fract_x
  _atom_site_fract_y
  _atom_site_fract_z
  _atom_site_thermal_displace_type
  _atom_site_B_iso_or_equiv
  _atom_site_type_symbol
  Pt1      1.0000 0.66667  0.33333  0.50018  Biso   1.000  Pt
  Pt2      1.0000 0.33333  0.66667  0.49982  Biso   1.000  Pt
  Br1      1.0000 0.48726  0.00004  0.40993  Biso   1.000  Br
  Br2      1.0000 0.51278  0.51274  0.40993  Biso   1.000  Br
  Br3      1.0000 0.99996  0.48722  0.40993  Biso   1.000  Br
  Br4      1.0000 0.48722  0.99997  0.59007  Biso   1.000  Br
  Br5      1.0000 0.51274  0.51278  0.59007  Biso   1.000  Br
  Br6      1.0000 0.00003  0.48726  0.59007  Biso   1.000  Br
