data_image0
_cell_length_a       3.63135
_cell_length_b       3.63233
_cell_length_c       18.8558
_cell_angle_alpha    90
_cell_angle_beta     90
_cell_angle_gamma    119.991

_symmetry_space_group_name_H-M    "P 1"
_symmetry_int_tables_number       1

loop_
  _symmetry_equiv_pos_as_xyz
  'x, y, z'

loop_
  _atom_site_label
  _atom_site_occupancy
  _atom_site_fract_x
  _atom_site_fract_y
  _atom_site_fract_z
  _atom_site_thermal_displace_type
  _atom_site_B_iso_or_equiv
  _atom_site_type_symbol
  Cl1      1.0000 0.66663  0.33309  0.38910  Biso   1.000  Cl
  Cl2      1.0000 0.66650  0.33346  0.61096  Biso   1.000  Cl
  Pt1      1.0000 0.00004  0.00008  0.53943  Biso   1.000  Pt
  Pt2      1.0000 0.33337  0.66661  0.46074  Biso   1.000  Pt
