data_image0
_cell_length_a       7.13537
_cell_length_b       7.14145
_cell_length_c       18.4116
_cell_angle_alpha    90
_cell_angle_beta     90
_cell_angle_gamma    119.972

_symmetry_space_group_name_H-M    "P 1"
_symmetry_int_tables_number       1

loop_
  _symmetry_equiv_pos_as_xyz
  'x, y, z'

loop_
  _atom_site_label
  _atom_site_occupancy
  _atom_site_fract_x
  _atom_site_fract_y
  _atom_site_fract_z
  _atom_site_thermal_displace_type
  _atom_site_B_iso_or_equiv
  _atom_site_type_symbol
  Pt1      1.0000 0.00012  0.00002  0.49978  Biso   1.000  Pt
  Pt2      1.0000 0.33322  0.66666  0.50016  Biso   1.000  Pt
  P1       1.0000 0.66662  0.33333  0.43831  Biso   1.000  P
  P2       1.0000 0.66671  0.33333  0.56183  Biso   1.000  P
  Te1      1.0000 0.28616  0.95196  0.41674  Biso   1.000  Te
  Te2      1.0000 0.04595  0.33388  0.41714  Biso   1.000  Te
  Te3      1.0000 0.66657  0.71330  0.41697  Biso   1.000  Te
  Te4      1.0000 0.04725  0.71482  0.58324  Biso   1.000  Te
  Te5      1.0000 0.28729  0.33278  0.58285  Biso   1.000  Te
  Te6      1.0000 0.66681  0.95332  0.58301  Biso   1.000  Te
