data_image0
_cell_length_a       6.05431
_cell_length_b       6.89405
_cell_length_c       17.9736
_cell_angle_alpha    90
_cell_angle_beta     90
_cell_angle_gamma    116.046

_symmetry_space_group_name_H-M    "P 1"
_symmetry_int_tables_number       1

loop_
  _symmetry_equiv_pos_as_xyz
  'x, y, z'

loop_
  _atom_site_label
  _atom_site_occupancy
  _atom_site_fract_x
  _atom_site_fract_y
  _atom_site_fract_z
  _atom_site_thermal_displace_type
  _atom_site_B_iso_or_equiv
  _atom_site_type_symbol
  Pt1      1.0000 0.00796  0.01571  0.49879  Biso   1.000  Pt
  Pt2      1.0000 0.32552  0.65095  0.49876  Biso   1.000  Pt
  P1       1.0000 0.64685  0.33328  0.43604  Biso   1.000  P
  P2       1.0000 0.68595  0.33320  0.56177  Biso   1.000  P
  Se1      1.0000 0.31841  0.94968  0.42116  Biso   1.000  Se
  Se2      1.0000 0.02789  0.33325  0.41542  Biso   1.000  Se
  Se3      1.0000 0.70215  0.71690  0.42120  Biso   1.000  Se
  Se4      1.0000 0.01547  0.71722  0.57640  Biso   1.000  Se
  Se5      1.0000 0.30513  0.33354  0.58226  Biso   1.000  Se
  Se6      1.0000 0.63131  0.94959  0.57629  Biso   1.000  Se
