data_image0
_cell_length_a       3.75998
_cell_length_b       3.75998
_cell_length_c       19.0779
_cell_angle_alpha    90
_cell_angle_beta     90
_cell_angle_gamma    120

_symmetry_space_group_name_H-M    "P 1"
_symmetry_int_tables_number       1

loop_
  _symmetry_equiv_pos_as_xyz
  'x, y, z'

loop_
  _atom_site_label
  _atom_site_occupancy
  _atom_site_fract_x
  _atom_site_fract_y
  _atom_site_fract_z
  _atom_site_thermal_displace_type
  _atom_site_B_iso_or_equiv
  _atom_site_type_symbol
  Pt1      1.0000 0.33369  0.66736  0.56944  Biso   1.000  Pt
  S1       1.0000 0.66702  0.33393  0.39313  Biso   1.000  S
  S2       1.0000 0.00031  0.00073  0.60687  Biso   1.000  S
  Pt2      1.0000 0.33365  0.66731  0.43056  Biso   1.000  Pt
