data_image0
_cell_length_a       5.47179
_cell_length_b       5.56027
_cell_length_c       16.3244
_cell_angle_alpha    90
_cell_angle_beta     90
_cell_angle_gamma    90

_symmetry_space_group_name_H-M    "P 1"
_symmetry_int_tables_number       1

loop_
  _symmetry_equiv_pos_as_xyz
  'x, y, z'

loop_
  _atom_site_label
  _atom_site_occupancy
  _atom_site_fract_x
  _atom_site_fract_y
  _atom_site_fract_z
  _atom_site_thermal_displace_type
  _atom_site_B_iso_or_equiv
  _atom_site_type_symbol
  Pt1      1.0000 0.50000  1.00000  0.50000  Biso   1.000  Pt
  Pt2      1.0000 0.00000  0.50000  0.50000  Biso   1.000  Pt
  S1       1.0000 0.10757  0.11383  0.46065  Biso   1.000  S
  S2       1.0000 0.60757  0.38617  0.53935  Biso   1.000  S
  S3       1.0000 0.89243  0.88617  0.53935  Biso   1.000  S
  S4       1.0000 0.39243  0.61383  0.46065  Biso   1.000  S
