data_image0
_cell_length_a       6.10326
_cell_length_b       3.71629
_cell_length_c       20.8582
_cell_angle_alpha    90
_cell_angle_beta     90
_cell_angle_gamma    90

_symmetry_space_group_name_H-M    "P 1"
_symmetry_int_tables_number       1

loop_
  _symmetry_equiv_pos_as_xyz
  'x, y, z'

loop_
  _atom_site_label
  _atom_site_occupancy
  _atom_site_fract_x
  _atom_site_fract_y
  _atom_site_fract_z
  _atom_site_thermal_displace_type
  _atom_site_B_iso_or_equiv
  _atom_site_type_symbol
  Pt1      1.0000 0.21838  0.24969  0.57979  Biso   1.000  Pt
  Pt2      1.0000 0.19260  0.74721  0.42021  Biso   1.000  Pt
  Se1      1.0000 0.96424  0.24728  0.46467  Biso   1.000  Se
  Se2      1.0000 0.44675  0.74964  0.53533  Biso   1.000  Se
  Se3      1.0000 0.36559  0.24717  0.36128  Biso   1.000  Se
  Se4      1.0000 0.04539  0.74975  0.63872  Biso   1.000  Se
  Se5      1.0000 0.75375  0.24721  0.35961  Biso   1.000  Se
  Se6      1.0000 0.65722  0.75026  0.64039  Biso   1.000  Se
