data_image0
_cell_length_a       3.73034
_cell_length_b       3.73197
_cell_length_c       18.8558
_cell_angle_alpha    90
_cell_angle_beta     90
_cell_angle_gamma    119.986

_symmetry_space_group_name_H-M    "P 1"
_symmetry_int_tables_number       1

loop_
  _symmetry_equiv_pos_as_xyz
  'x, y, z'

loop_
  _atom_site_label
  _atom_site_occupancy
  _atom_site_fract_x
  _atom_site_fract_y
  _atom_site_fract_z
  _atom_site_thermal_displace_type
  _atom_site_B_iso_or_equiv
  _atom_site_type_symbol
  Se1      1.0000 0.00003  0.00008  0.38871  Biso   1.000  Se
  Se2      1.0000 0.33330  0.66659  0.61135  Biso   1.000  Se
  Pt1      1.0000 0.00002  0.00015  0.54852  Biso   1.000  Pt
  Pt2      1.0000 0.33331  0.66652  0.45156  Biso   1.000  Pt
