data_image0
_cell_length_a       6.6584
_cell_length_b       3.91638
_cell_length_c       21.3329
_cell_angle_alpha    90
_cell_angle_beta     90
_cell_angle_gamma    90

_symmetry_space_group_name_H-M    "P 1"
_symmetry_int_tables_number       1

loop_
  _symmetry_equiv_pos_as_xyz
  'x, y, z'

loop_
  _atom_site_label
  _atom_site_occupancy
  _atom_site_fract_x
  _atom_site_fract_y
  _atom_site_fract_z
  _atom_site_thermal_displace_type
  _atom_site_B_iso_or_equiv
  _atom_site_type_symbol
  Pt1      1.0000 0.51358  0.25131  0.57864  Biso   1.000  Pt
  Pt2      1.0000 0.42652  0.75123  0.42135  Biso   1.000  Pt
  Te1      1.0000 0.22982  0.25134  0.47880  Biso   1.000  Te
  Te2      1.0000 0.71025  0.75140  0.52119  Biso   1.000  Te
  Te3      1.0000 0.57552  0.25112  0.35216  Biso   1.000  Te
  Te4      1.0000 0.36454  0.75124  0.64783  Biso   1.000  Te
  Te5      1.0000 0.99570  0.25117  0.36017  Biso   1.000  Te
  Te6      1.0000 0.94437  0.75142  0.63983  Biso   1.000  Te
