data_image0
_cell_length_a       6.11152
_cell_length_b       6.406
_cell_length_c       16.5771
_cell_angle_alpha    90
_cell_angle_beta     90
_cell_angle_gamma    90

_symmetry_space_group_name_H-M    "P 1"
_symmetry_int_tables_number       1

loop_
  _symmetry_equiv_pos_as_xyz
  'x, y, z'

loop_
  _atom_site_label
  _atom_site_occupancy
  _atom_site_fract_x
  _atom_site_fract_y
  _atom_site_fract_z
  _atom_site_thermal_displace_type
  _atom_site_B_iso_or_equiv
  _atom_site_type_symbol
  Pt1      1.0000 0.50000  0.00000  0.50000  Biso   1.000  Pt
  Pt2      1.0000 0.00000  0.50000  0.50000  Biso   1.000  Pt
  Te1      1.0000 0.11856  0.13198  0.44834  Biso   1.000  Te
  Te2      1.0000 0.61856  0.36802  0.55166  Biso   1.000  Te
  Te3      1.0000 0.88144  0.86802  0.55166  Biso   1.000  Te
  Te4      1.0000 0.38144  0.63198  0.44834  Biso   1.000  Te
