data_image0
_cell_length_a       3.4464
_cell_length_b       6.08514
_cell_length_c       20.077
_cell_angle_alpha    90
_cell_angle_beta     90
_cell_angle_gamma    90

_symmetry_space_group_name_H-M    "P 1"
_symmetry_int_tables_number       1

loop_
  _symmetry_equiv_pos_as_xyz
  'x, y, z'

loop_
  _atom_site_label
  _atom_site_occupancy
  _atom_site_fract_x
  _atom_site_fract_y
  _atom_site_fract_z
  _atom_site_thermal_displace_type
  _atom_site_B_iso_or_equiv
  _atom_site_type_symbol
  Rb1      1.0000 0.00000  1.00000  0.51987  Biso   1.000  Rb
  I1       1.0000 0.00000  0.50000  0.61244  Biso   1.000  I
  I2       1.0000 0.50000  0.00000  0.36744  Biso   1.000  I
