data_image0
_cell_length_a       3.31616
_cell_length_b       3.31467
_cell_length_c       18.8558
_cell_angle_alpha    90
_cell_angle_beta     90
_cell_angle_gamma    120.015

_symmetry_space_group_name_H-M    "P 1"
_symmetry_int_tables_number       1

loop_
  _symmetry_equiv_pos_as_xyz
  'x, y, z'

loop_
  _atom_site_label
  _atom_site_occupancy
  _atom_site_fract_x
  _atom_site_fract_y
  _atom_site_fract_z
  _atom_site_thermal_displace_type
  _atom_site_B_iso_or_equiv
  _atom_site_type_symbol
  Cl1      1.0000 0.99995  0.00003  0.36145  Biso   1.000  Cl
  Cl2      1.0000 0.33338  0.66664  0.63862  Biso   1.000  Cl
  Re1      1.0000 0.99957  0.00061  0.53988  Biso   1.000  Re
  Re2      1.0000 0.33376  0.66606  0.46019  Biso   1.000  Re
