data_image0
_cell_length_a       3.70618
_cell_length_b       5.26519
_cell_length_c       18.0838
_cell_angle_alpha    90
_cell_angle_beta     90
_cell_angle_gamma    90

_symmetry_space_group_name_H-M    "P 1"
_symmetry_int_tables_number       1

loop_
  _symmetry_equiv_pos_as_xyz
  'x, y, z'

loop_
  _atom_site_label
  _atom_site_occupancy
  _atom_site_fract_x
  _atom_site_fract_y
  _atom_site_fract_z
  _atom_site_thermal_displace_type
  _atom_site_B_iso_or_equiv
  _atom_site_type_symbol
  Re1      1.0000 0.00000  0.00023  0.50003  Biso   1.000  Re
  Cl1      1.0000 0.50000  0.12956  0.58012  Biso   1.000  Cl
  Cl2      1.0000 0.00000  0.37044  0.41988  Biso   1.000  Cl
  Re2      1.0000 0.50000  0.49977  0.49997  Biso   1.000  Re
  Cl3      1.0000 1.00000  0.62963  0.57987  Biso   1.000  Cl
  Cl4      1.0000 0.50000  0.87037  0.42013  Biso   1.000  Cl
