data_image0
_cell_length_a       2.8143
_cell_length_b       2.814
_cell_length_c       18.8558
_cell_angle_alpha    90
_cell_angle_beta     90
_cell_angle_gamma    120.004

_symmetry_space_group_name_H-M    "P 1"
_symmetry_int_tables_number       1

loop_
  _symmetry_equiv_pos_as_xyz
  'x, y, z'

loop_
  _atom_site_label
  _atom_site_occupancy
  _atom_site_fract_x
  _atom_site_fract_y
  _atom_site_fract_z
  _atom_site_thermal_displace_type
  _atom_site_B_iso_or_equiv
  _atom_site_type_symbol
  F1       1.0000 0.99943  0.00056  0.36306  Biso   1.000  F
  F2       1.0000 0.33390  0.66610  0.63701  Biso   1.000  F
  Re1      1.0000 0.00000  0.00003  0.55310  Biso   1.000  Re
  Re2      1.0000 0.33333  0.66664  0.44697  Biso   1.000  Re
