data_image0
_cell_length_a       6.9868
_cell_length_b       6.9868
_cell_length_c       18.0608
_cell_angle_alpha    90
_cell_angle_beta     90
_cell_angle_gamma    120

_symmetry_space_group_name_H-M    "P 1"
_symmetry_int_tables_number       1

loop_
  _symmetry_equiv_pos_as_xyz
  'x, y, z'

loop_
  _atom_site_label
  _atom_site_occupancy
  _atom_site_fract_x
  _atom_site_fract_y
  _atom_site_fract_z
  _atom_site_thermal_displace_type
  _atom_site_B_iso_or_equiv
  _atom_site_type_symbol
  Re1      1.0000 0.66667  0.33333  0.49996  Biso   1.000  Re
  Re2      1.0000 0.33333  0.66667  0.50004  Biso   1.000  Re
  I1       1.0000 0.64474  1.00000  0.41340  Biso   1.000  I
  I2       1.0000 0.35526  0.35526  0.41340  Biso   1.000  I
  I3       1.0000 0.00000  0.64474  0.41340  Biso   1.000  I
  I4       1.0000 0.35522  0.99992  0.58660  Biso   1.000  I
  I5       1.0000 0.64470  0.64478  0.58660  Biso   1.000  I
  I6       1.0000 0.00008  0.35530  0.58660  Biso   1.000  I
