data_image0
_cell_length_a       4.15417
_cell_length_b       6.6897
_cell_length_c       17.8413
_cell_angle_alpha    90
_cell_angle_beta     90
_cell_angle_gamma    90

_symmetry_space_group_name_H-M    "P 1"
_symmetry_int_tables_number       1

loop_
  _symmetry_equiv_pos_as_xyz
  'x, y, z'

loop_
  _atom_site_label
  _atom_site_occupancy
  _atom_site_fract_x
  _atom_site_fract_y
  _atom_site_fract_z
  _atom_site_thermal_displace_type
  _atom_site_B_iso_or_equiv
  _atom_site_type_symbol
  Re1      1.0000 0.00000  0.01822  0.50167  Biso   1.000  Re
  I1       1.0000 0.50000  0.15464  0.58866  Biso   1.000  I
  I2       1.0000 0.00000  0.34536  0.41134  Biso   1.000  I
  Re2      1.0000 0.50000  0.48178  0.49833  Biso   1.000  Re
  I3       1.0000 0.00000  0.65380  0.57667  Biso   1.000  I
  I4       1.0000 0.50000  0.84620  0.42333  Biso   1.000  I
