data_image0
_cell_length_a       3.68723
_cell_length_b       3.64697
_cell_length_c       18.8558
_cell_angle_alpha    90
_cell_angle_beta     90
_cell_angle_gamma    120.366

_symmetry_space_group_name_H-M    "P 1"
_symmetry_int_tables_number       1

loop_
  _symmetry_equiv_pos_as_xyz
  'x, y, z'

loop_
  _atom_site_label
  _atom_site_occupancy
  _atom_site_fract_x
  _atom_site_fract_y
  _atom_site_fract_z
  _atom_site_thermal_displace_type
  _atom_site_B_iso_or_equiv
  _atom_site_type_symbol
  I1       1.0000 0.01558  0.98097  0.35525  Biso   1.000  I
  I2       1.0000 0.31776  0.68570  0.64480  Biso   1.000  I
  Re1      1.0000 0.98608  0.01255  0.53445  Biso   1.000  Re
  Re2      1.0000 0.34725  0.65411  0.46563  Biso   1.000  Re
