data_image0
_cell_length_a       3.28657
_cell_length_b       5.93392
_cell_length_c       18.5401
_cell_angle_alpha    90
_cell_angle_beta     90
_cell_angle_gamma    90

_symmetry_space_group_name_H-M    "P 1"
_symmetry_int_tables_number       1

loop_
  _symmetry_equiv_pos_as_xyz
  'x, y, z'

loop_
  _atom_site_label
  _atom_site_occupancy
  _atom_site_fract_x
  _atom_site_fract_y
  _atom_site_fract_z
  _atom_site_thermal_displace_type
  _atom_site_B_iso_or_equiv
  _atom_site_type_symbol
  Re1      1.0000 0.00000  0.05578  0.50207  Biso   1.000  Re
  Se1      1.0000 0.50000  0.17430  0.59862  Biso   1.000  Se
  Se2      1.0000 0.00000  0.32570  0.40138  Biso   1.000  Se
  Re2      1.0000 0.50000  0.44422  0.49793  Biso   1.000  Re
  Se3      1.0000 0.00000  0.67561  0.57421  Biso   1.000  Se
  Se4      1.0000 0.50000  0.82439  0.42579  Biso   1.000  Se
