data_image0
_cell_length_a       2.98063
_cell_length_b       4.27034
_cell_length_c       17.5486
_cell_angle_alpha    90
_cell_angle_beta     90
_cell_angle_gamma    90

_symmetry_space_group_name_H-M    "P 1"
_symmetry_int_tables_number       1

loop_
  _symmetry_equiv_pos_as_xyz
  'x, y, z'

loop_
  _atom_site_label
  _atom_site_occupancy
  _atom_site_fract_x
  _atom_site_fract_y
  _atom_site_fract_z
  _atom_site_thermal_displace_type
  _atom_site_B_iso_or_equiv
  _atom_site_type_symbol
  Re1      1.0000 0.00000  0.05515  0.47667  Biso   1.000  Re
  S1       1.0000 1.00000  0.30057  0.59878  Biso   1.000  S
  Re2      1.0000 0.50000  0.57314  0.51753  Biso   1.000  Re
  S2       1.0000 0.00000  0.57049  0.40705  Biso   1.000  S
