data_image0
_cell_length_a       2.95514
_cell_length_b       2.95514
_cell_length_c       20.8516
_cell_angle_alpha    90
_cell_angle_beta     90
_cell_angle_gamma    120

_symmetry_space_group_name_H-M    "P 1"
_symmetry_int_tables_number       1

loop_
  _symmetry_equiv_pos_as_xyz
  'x, y, z'

loop_
  _atom_site_label
  _atom_site_occupancy
  _atom_site_fract_x
  _atom_site_fract_y
  _atom_site_fract_z
  _atom_site_thermal_displace_type
  _atom_site_B_iso_or_equiv
  _atom_site_type_symbol
  Re1      1.0000 0.66667  0.33333  0.43641  Biso   1.000  Re
  Re2      1.0000 0.66667  0.33333  0.56359  Biso   1.000  Re
  S1       1.0000 0.33333  0.66667  0.35947  Biso   1.000  S
  S2       1.0000 0.33333  0.66667  0.64053  Biso   1.000  S
