data_image0
_cell_length_a       5.65209
_cell_length_b       5.70797
_cell_length_c       18.4419
_cell_angle_alpha    90
_cell_angle_beta     90
_cell_angle_gamma    119.168

_symmetry_space_group_name_H-M    "P 1"
_symmetry_int_tables_number       1

loop_
  _symmetry_equiv_pos_as_xyz
  'x, y, z'

loop_
  _atom_site_label
  _atom_site_occupancy
  _atom_site_fract_x
  _atom_site_fract_y
  _atom_site_fract_z
  _atom_site_thermal_displace_type
  _atom_site_B_iso_or_equiv
  _atom_site_type_symbol
  Re1      1.0000 0.98374  0.98548  0.49633  Biso   1.000  Re
  Re2      1.0000 0.89803  0.39410  0.50367  Biso   1.000  Re
  Re3      1.0000 0.44986  0.41460  0.50105  Biso   1.000  Re
  Re4      1.0000 0.43192  0.96498  0.49895  Biso   1.000  Re
  O1       1.0000 0.29382  0.12834  0.42247  Biso   1.000  O
  O2       1.0000 0.58796  0.25124  0.57753  Biso   1.000  O
  O3       1.0000 0.79147  0.62117  0.44053  Biso   1.000  O
  O4       1.0000 0.09030  0.75841  0.55947  Biso   1.000  O
  O5       1.0000 0.12202  0.28714  0.57040  Biso   1.000  O
  O6       1.0000 0.75974  0.09242  0.42960  Biso   1.000  O
  O7       1.0000 0.62109  0.78451  0.55012  Biso   1.000  O
  O8       1.0000 0.26069  0.59507  0.44988  Biso   1.000  O
