data_image0
_cell_length_a       6.40726
_cell_length_b       6.51474
_cell_length_c       18.4419
_cell_angle_alpha    90
_cell_angle_beta     90
_cell_angle_gamma    118.951

_symmetry_space_group_name_H-M    "P 1"
_symmetry_int_tables_number       1

loop_
  _symmetry_equiv_pos_as_xyz
  'x, y, z'

loop_
  _atom_site_label
  _atom_site_occupancy
  _atom_site_fract_x
  _atom_site_fract_y
  _atom_site_fract_z
  _atom_site_thermal_displace_type
  _atom_site_B_iso_or_equiv
  _atom_site_type_symbol
  Re1      1.0000 0.00197  0.00187  0.49699  Biso   1.000  Re
  Re2      1.0000 0.87981  0.37771  0.50301  Biso   1.000  Re
  Re3      1.0000 0.45256  0.40362  0.50076  Biso   1.000  Re
  Re4      1.0000 0.42921  0.97596  0.49924  Biso   1.000  Re
  S1       1.0000 0.29559  0.13056  0.40508  Biso   1.000  S
  S2       1.0000 0.58619  0.24901  0.59492  Biso   1.000  S
  S3       1.0000 0.79486  0.62358  0.42656  Biso   1.000  S
  S4       1.0000 0.08692  0.75600  0.57344  Biso   1.000  S
  S5       1.0000 0.12379  0.29317  0.58518  Biso   1.000  S
  S6       1.0000 0.75798  0.08640  0.41482  Biso   1.000  S
  S7       1.0000 0.62414  0.78590  0.56418  Biso   1.000  S
  S8       1.0000 0.25764  0.59368  0.43582  Biso   1.000  S
