data_image0
_cell_length_a       6.65465
_cell_length_b       6.77915
_cell_length_c       18.4419
_cell_angle_alpha    90
_cell_angle_beta     90
_cell_angle_gamma    118.891

_symmetry_space_group_name_H-M    "P 1"
_symmetry_int_tables_number       1

loop_
  _symmetry_equiv_pos_as_xyz
  'x, y, z'

loop_
  _atom_site_label
  _atom_site_occupancy
  _atom_site_fract_x
  _atom_site_fract_y
  _atom_site_fract_z
  _atom_site_thermal_displace_type
  _atom_site_B_iso_or_equiv
  _atom_site_type_symbol
  Re1      1.0000 0.00845  0.00761  0.49645  Biso   1.000  Re
  Re2      1.0000 0.87332  0.37197  0.50355  Biso   1.000  Re
  Re3      1.0000 0.45292  0.39824  0.50111  Biso   1.000  Re
  Re4      1.0000 0.42886  0.98134  0.49889  Biso   1.000  Re
  Se1      1.0000 0.29762  0.13319  0.39723  Biso   1.000  Se
  Se2      1.0000 0.58415  0.24638  0.60277  Biso   1.000  Se
  Se3      1.0000 0.79665  0.62603  0.42231  Biso   1.000  Se
  Se4      1.0000 0.08512  0.75355  0.57769  Biso   1.000  Se
  Se5      1.0000 0.12529  0.29542  0.59103  Biso   1.000  Se
  Se6      1.0000 0.75649  0.08416  0.40897  Biso   1.000  Se
  Se7      1.0000 0.62503  0.78659  0.56780  Biso   1.000  Se
  Se8      1.0000 0.25675  0.59299  0.43220  Biso   1.000  Se
