data_image0
_cell_length_a       6.64116
_cell_length_b       6.64116
_cell_length_c       18.2124
_cell_angle_alpha    90
_cell_angle_beta     90
_cell_angle_gamma    120

_symmetry_space_group_name_H-M    "P 1"
_symmetry_int_tables_number       1

loop_
  _symmetry_equiv_pos_as_xyz
  'x, y, z'

loop_
  _atom_site_label
  _atom_site_occupancy
  _atom_site_fract_x
  _atom_site_fract_y
  _atom_site_fract_z
  _atom_site_thermal_displace_type
  _atom_site_B_iso_or_equiv
  _atom_site_type_symbol
  Rh1      1.0000 0.66667  0.33333  0.50983  Biso   1.000  Rh
  Rh2      1.0000 0.33333  0.66667  0.49016  Biso   1.000  Rh
  Br1      1.0000 0.41514  0.99981  0.41052  Biso   1.000  Br
  Br2      1.0000 0.58467  0.58486  0.41052  Biso   1.000  Br
  Br3      1.0000 0.00019  0.41533  0.41052  Biso   1.000  Br
  Br4      1.0000 0.41565  0.00017  0.58949  Biso   1.000  Br
  Br5      1.0000 0.58452  0.58435  0.58949  Biso   1.000  Br
  Br6      1.0000 0.99983  0.41548  0.58949  Biso   1.000  Br
