data_image0
_cell_length_a       3.69479
_cell_length_b       7.04965
_cell_length_c       17.7639
_cell_angle_alpha    90
_cell_angle_beta     90
_cell_angle_gamma    90

_symmetry_space_group_name_H-M    "P 1"
_symmetry_int_tables_number       1

loop_
  _symmetry_equiv_pos_as_xyz
  'x, y, z'

loop_
  _atom_site_label
  _atom_site_occupancy
  _atom_site_fract_x
  _atom_site_fract_y
  _atom_site_fract_z
  _atom_site_thermal_displace_type
  _atom_site_B_iso_or_equiv
  _atom_site_type_symbol
  Rh1      1.0000 0.00000  0.00003  0.50000  Biso   1.000  Rh
  Br1      1.0000 0.50000  0.14418  0.57812  Biso   1.000  Br
  Br2      1.0000 0.00000  0.35582  0.42188  Biso   1.000  Br
  Rh2      1.0000 0.50000  0.49997  0.50000  Biso   1.000  Rh
  Br3      1.0000 0.00000  0.64405  0.57810  Biso   1.000  Br
  Br4      1.0000 0.50000  0.85595  0.42190  Biso   1.000  Br
