data_image0
_cell_length_a       3.59334
_cell_length_b       3.59489
_cell_length_c       18.8558
_cell_angle_alpha    90
_cell_angle_beta     90
_cell_angle_gamma    119.986

_symmetry_space_group_name_H-M    "P 1"
_symmetry_int_tables_number       1

loop_
  _symmetry_equiv_pos_as_xyz
  'x, y, z'

loop_
  _atom_site_label
  _atom_site_occupancy
  _atom_site_fract_x
  _atom_site_fract_y
  _atom_site_fract_z
  _atom_site_thermal_displace_type
  _atom_site_B_iso_or_equiv
  _atom_site_type_symbol
  Br1      1.0000 0.00002  0.00068  0.37336  Biso   1.000  Br
  Br2      1.0000 0.33331  0.66599  0.62671  Biso   1.000  Br
  Rh1      1.0000 0.00005  0.00018  0.54074  Biso   1.000  Rh
  Rh2      1.0000 0.33328  0.66649  0.45932  Biso   1.000  Rh
