data_image0
_cell_length_a       3.50064
_cell_length_b       6.85292
_cell_length_c       17.5865
_cell_angle_alpha    90
_cell_angle_beta     90
_cell_angle_gamma    90

_symmetry_space_group_name_H-M    "P 1"
_symmetry_int_tables_number       1

loop_
  _symmetry_equiv_pos_as_xyz
  'x, y, z'

loop_
  _atom_site_label
  _atom_site_occupancy
  _atom_site_fract_x
  _atom_site_fract_y
  _atom_site_fract_z
  _atom_site_thermal_displace_type
  _atom_site_B_iso_or_equiv
  _atom_site_type_symbol
  Rh1      1.0000 0.00000  0.00010  0.50003  Biso   1.000  Rh
  Cl1      1.0000 0.50000  0.13983  0.57381  Biso   1.000  Cl
  Cl2      1.0000 0.00000  0.36016  0.42619  Biso   1.000  Cl
  Rh2      1.0000 0.50000  0.49990  0.49997  Biso   1.000  Rh
  Cl3      1.0000 0.00000  0.63964  0.57386  Biso   1.000  Cl
  Cl4      1.0000 0.50000  0.86036  0.42614  Biso   1.000  Cl
