data_image0
_cell_length_a       6.59653
_cell_length_b       6.59653
_cell_length_c       18.0403
_cell_angle_alpha    90
_cell_angle_beta     90
_cell_angle_gamma    120

_symmetry_space_group_name_H-M    "P 1"
_symmetry_int_tables_number       1

loop_
  _symmetry_equiv_pos_as_xyz
  'x, y, z'

loop_
  _atom_site_label
  _atom_site_occupancy
  _atom_site_fract_x
  _atom_site_fract_y
  _atom_site_fract_z
  _atom_site_thermal_displace_type
  _atom_site_B_iso_or_equiv
  _atom_site_type_symbol
  Rh1      1.0000 0.66667  0.33333  0.50939  Biso   1.000  Rh
  Rh2      1.0000 0.33333  0.66667  0.49061  Biso   1.000  Rh
  Cl1      1.0000 0.49799  0.99349  0.41504  Biso   1.000  Cl
  Cl2      1.0000 0.49549  0.50201  0.41504  Biso   1.000  Cl
  Cl3      1.0000 0.00651  0.50451  0.41504  Biso   1.000  Cl
  Cl4      1.0000 0.50458  0.00651  0.58496  Biso   1.000  Cl
  Cl5      1.0000 0.50193  0.49542  0.58496  Biso   1.000  Cl
  Cl6      1.0000 0.99349  0.49807  0.58496  Biso   1.000  Cl
