data_image0
_cell_length_a       3.42222
_cell_length_b       3.42475
_cell_length_c       18.8558
_cell_angle_alpha    90
_cell_angle_beta     90
_cell_angle_gamma    119.976

_symmetry_space_group_name_H-M    "P 1"
_symmetry_int_tables_number       1

loop_
  _symmetry_equiv_pos_as_xyz
  'x, y, z'

loop_
  _atom_site_label
  _atom_site_occupancy
  _atom_site_fract_x
  _atom_site_fract_y
  _atom_site_fract_z
  _atom_site_thermal_displace_type
  _atom_site_B_iso_or_equiv
  _atom_site_type_symbol
  Cl1      1.0000 0.99983  0.00068  0.37431  Biso   1.000  Cl
  Cl2      1.0000 0.33351  0.66599  0.62576  Biso   1.000  Cl
  Rh1      1.0000 0.00008  0.00029  0.54337  Biso   1.000  Rh
  Rh2      1.0000 0.33325  0.66638  0.45670  Biso   1.000  Rh
