data_image0
_cell_length_a       2.90835
_cell_length_b       2.91056
_cell_length_c       18.8558
_cell_angle_alpha    90
_cell_angle_beta     90
_cell_angle_gamma    119.975

_symmetry_space_group_name_H-M    "P 1"
_symmetry_int_tables_number       1

loop_
  _symmetry_equiv_pos_as_xyz
  'x, y, z'

loop_
  _atom_site_label
  _atom_site_occupancy
  _atom_site_fract_x
  _atom_site_fract_y
  _atom_site_fract_z
  _atom_site_thermal_displace_type
  _atom_site_B_iso_or_equiv
  _atom_site_type_symbol
  F1       1.0000 0.00003  0.00145  0.36595  Biso   1.000  F
  F2       1.0000 0.33329  0.66520  0.63412  Biso   1.000  F
  Rh1      1.0000 0.00012  0.99948  0.55589  Biso   1.000  Rh
  Rh2      1.0000 0.33321  0.66718  0.44418  Biso   1.000  Rh
