data_image0
_cell_length_a       6.93357
_cell_length_b       6.93357
_cell_length_c       18.0346
_cell_angle_alpha    90
_cell_angle_beta     90
_cell_angle_gamma    120

_symmetry_space_group_name_H-M    "P 1"
_symmetry_int_tables_number       1

loop_
  _symmetry_equiv_pos_as_xyz
  'x, y, z'

loop_
  _atom_site_label
  _atom_site_occupancy
  _atom_site_fract_x
  _atom_site_fract_y
  _atom_site_fract_z
  _atom_site_thermal_displace_type
  _atom_site_B_iso_or_equiv
  _atom_site_type_symbol
  Rh1      1.0000 0.66667  0.33333  0.49999  Biso   1.000  Rh
  Rh2      1.0000 0.33333  0.66667  0.50001  Biso   1.000  Rh
  I1       1.0000 0.64230  0.00001  0.41584  Biso   1.000  I
  I2       1.0000 0.35771  0.35770  0.41584  Biso   1.000  I
  I3       1.0000 0.99999  0.64229  0.41584  Biso   1.000  I
  I4       1.0000 0.35770  0.99999  0.58416  Biso   1.000  I
  I5       1.0000 0.64229  0.64230  0.58416  Biso   1.000  I
  I6       1.0000 0.00001  0.35771  0.58416  Biso   1.000  I
