data_image0
_cell_length_a       4.01748
_cell_length_b       4.0188
_cell_length_c       18.8558
_cell_angle_alpha    90
_cell_angle_beta     90
_cell_angle_gamma    119.989

_symmetry_space_group_name_H-M    "P 1"
_symmetry_int_tables_number       1

loop_
  _symmetry_equiv_pos_as_xyz
  'x, y, z'

loop_
  _atom_site_label
  _atom_site_occupancy
  _atom_site_fract_x
  _atom_site_fract_y
  _atom_site_fract_z
  _atom_site_thermal_displace_type
  _atom_site_B_iso_or_equiv
  _atom_site_type_symbol
  I1       1.0000 0.00003  0.00008  0.39034  Biso   1.000  I
  I2       1.0000 0.33330  0.66658  0.60975  Biso   1.000  I
  Rh1      1.0000 0.99998  0.00014  0.54284  Biso   1.000  Rh
  Rh2      1.0000 0.33335  0.66652  0.45721  Biso   1.000  Rh
