data_image0
_cell_length_a       7.07081
_cell_length_b       7.07081
_cell_length_c       18.3959
_cell_angle_alpha    90
_cell_angle_beta     90
_cell_angle_gamma    120

_symmetry_space_group_name_H-M    "P 1"
_symmetry_int_tables_number       1

loop_
  _symmetry_equiv_pos_as_xyz
  'x, y, z'

loop_
  _atom_site_label
  _atom_site_occupancy
  _atom_site_fract_x
  _atom_site_fract_y
  _atom_site_fract_z
  _atom_site_thermal_displace_type
  _atom_site_B_iso_or_equiv
  _atom_site_type_symbol
  Rh1      1.0000 0.66667  0.33333  0.49999  Biso   1.000  Rh
  Rh2      1.0000 0.33333  0.66667  0.50000  Biso   1.000  Rh
  I1       1.0000 0.40245  0.00003  0.40791  Biso   1.000  I
  I2       1.0000 0.59758  0.59755  0.40791  Biso   1.000  I
  I3       1.0000 0.99997  0.40242  0.40791  Biso   1.000  I
  I4       1.0000 0.40241  0.99995  0.59209  Biso   1.000  I
  I5       1.0000 0.59754  0.59759  0.59209  Biso   1.000  I
  I6       1.0000 0.00005  0.40246  0.59209  Biso   1.000  I
