data_image0
_cell_length_a       4.1692
_cell_length_b       2.92292
_cell_length_c       19.5121
_cell_angle_alpha    90
_cell_angle_beta     90
_cell_angle_gamma    90

_symmetry_space_group_name_H-M    "P 1"
_symmetry_int_tables_number       1

loop_
  _symmetry_equiv_pos_as_xyz
  'x, y, z'

loop_
  _atom_site_label
  _atom_site_occupancy
  _atom_site_fract_x
  _atom_site_fract_y
  _atom_site_fract_z
  _atom_site_thermal_displace_type
  _atom_site_B_iso_or_equiv
  _atom_site_type_symbol
  Rh1      1.0000 0.59808  0.25000  0.56393  Biso   1.000  Rh
  Rh2      1.0000 0.09809  0.75000  0.43605  Biso   1.000  Rh
  O1       1.0000 0.18676  0.25000  0.50551  Biso   1.000  O
  O2       1.0000 0.68676  0.75000  0.49447  Biso   1.000  O
  O3       1.0000 0.37249  0.25000  0.38695  Biso   1.000  O
  O4       1.0000 0.36898  0.75000  0.61577  Biso   1.000  O
  O5       1.0000 0.86907  0.25000  0.38421  Biso   1.000  O
  O6       1.0000 0.87236  0.75000  0.61305  Biso   1.000  O
