data_image0
_cell_length_a       2.97818
_cell_length_b       4.71843
_cell_length_c       17.0707
_cell_angle_alpha    90
_cell_angle_beta     90
_cell_angle_gamma    90

_symmetry_space_group_name_H-M    "P 1"
_symmetry_int_tables_number       1

loop_
  _symmetry_equiv_pos_as_xyz
  'x, y, z'

loop_
  _atom_site_label
  _atom_site_occupancy
  _atom_site_fract_x
  _atom_site_fract_y
  _atom_site_fract_z
  _atom_site_thermal_displace_type
  _atom_site_B_iso_or_equiv
  _atom_site_type_symbol
  Rh1      1.0000 0.00000  0.02452  0.49163  Biso   1.000  Rh
  O1       1.0000 0.00000  0.32683  0.56789  Biso   1.000  O
  Rh2      1.0000 0.50000  0.48082  0.49938  Biso   1.000  Rh
  O2       1.0000 0.00000  0.66765  0.44114  Biso   1.000  O
