data_image0
_cell_length_a       6.45437
_cell_length_b       6.45591
_cell_length_c       18.4116
_cell_angle_alpha    90
_cell_angle_beta     90
_cell_angle_gamma    119.992

_symmetry_space_group_name_H-M    "P 1"
_symmetry_int_tables_number       1

loop_
  _symmetry_equiv_pos_as_xyz
  'x, y, z'

loop_
  _atom_site_label
  _atom_site_occupancy
  _atom_site_fract_x
  _atom_site_fract_y
  _atom_site_fract_z
  _atom_site_thermal_displace_type
  _atom_site_B_iso_or_equiv
  _atom_site_type_symbol
  Rh1      1.0000 0.00001  0.00002  0.49998  Biso   1.000  Rh
  Rh2      1.0000 0.33333  0.66666  0.49998  Biso   1.000  Rh
  P1       1.0000 0.66668  0.33336  0.43922  Biso   1.000  P
  P2       1.0000 0.66666  0.33332  0.56093  Biso   1.000  P
  Se1      1.0000 0.29366  0.96030  0.42095  Biso   1.000  Se
  Se2      1.0000 0.03956  0.33329  0.42095  Biso   1.000  Se
  Se3      1.0000 0.66670  0.70633  0.42095  Biso   1.000  Se
  Se4      1.0000 0.03991  0.70666  0.57902  Biso   1.000  Se
  Se5      1.0000 0.29350  0.33334  0.57902  Biso   1.000  Se
  Se6      1.0000 0.66670  0.96012  0.57902  Biso   1.000  Se
