data_image0
_cell_length_a       6.90234
_cell_length_b       6.9037
_cell_length_c       18.4116
_cell_angle_alpha    90
_cell_angle_beta     90
_cell_angle_gamma    119.993

_symmetry_space_group_name_H-M    "P 1"
_symmetry_int_tables_number       1

loop_
  _symmetry_equiv_pos_as_xyz
  'x, y, z'

loop_
  _atom_site_label
  _atom_site_occupancy
  _atom_site_fract_x
  _atom_site_fract_y
  _atom_site_fract_z
  _atom_site_thermal_displace_type
  _atom_site_B_iso_or_equiv
  _atom_site_type_symbol
  Rh1      1.0000 0.00001  0.00002  0.49998  Biso   1.000  Rh
  Rh2      1.0000 0.33333  0.66666  0.49999  Biso   1.000  Rh
  P1       1.0000 0.66667  0.33336  0.43947  Biso   1.000  P
  P2       1.0000 0.66667  0.33332  0.56063  Biso   1.000  P
  Te1      1.0000 0.28346  0.95010  0.41502  Biso   1.000  Te
  Te2      1.0000 0.04977  0.33330  0.41504  Biso   1.000  Te
  Te3      1.0000 0.66669  0.71655  0.41502  Biso   1.000  Te
  Te4      1.0000 0.05000  0.71673  0.58497  Biso   1.000  Te
  Te5      1.0000 0.28342  0.33335  0.58495  Biso   1.000  Te
  Te6      1.0000 0.66668  0.95001  0.58497  Biso   1.000  Te
