data_image0
_cell_length_a       6.03546
_cell_length_b       6.03674
_cell_length_c       18.4116
_cell_angle_alpha    90
_cell_angle_beta     90
_cell_angle_gamma    119.993

_symmetry_space_group_name_H-M    "P 1"
_symmetry_int_tables_number       1

loop_
  _symmetry_equiv_pos_as_xyz
  'x, y, z'

loop_
  _atom_site_label
  _atom_site_occupancy
  _atom_site_fract_x
  _atom_site_fract_y
  _atom_site_fract_z
  _atom_site_thermal_displace_type
  _atom_site_B_iso_or_equiv
  _atom_site_type_symbol
  Rh1      1.0000 0.00002  0.00005  0.50000  Biso   1.000  Rh
  Rh2      1.0000 0.33332  0.66664  0.49998  Biso   1.000  Rh
  P1       1.0000 0.66667  0.33335  0.43919  Biso   1.000  P
  P2       1.0000 0.66667  0.33333  0.56089  Biso   1.000  P
  S1       1.0000 0.31373  0.98031  0.42276  Biso   1.000  S
  S2       1.0000 0.01959  0.33335  0.42273  Biso   1.000  S
  S3       1.0000 0.66662  0.68623  0.42275  Biso   1.000  S
  S4       1.0000 0.01966  0.68648  0.57724  Biso   1.000  S
  S5       1.0000 0.31363  0.33327  0.57726  Biso   1.000  S
  S6       1.0000 0.66678  0.98039  0.57724  Biso   1.000  S
