data_image0
_cell_length_a       2.83481
_cell_length_b       4.71431
_cell_length_c       17.6083
_cell_angle_alpha    90
_cell_angle_beta     90
_cell_angle_gamma    90

_symmetry_space_group_name_H-M    "P 1"
_symmetry_int_tables_number       1

loop_
  _symmetry_equiv_pos_as_xyz
  'x, y, z'

loop_
  _atom_site_label
  _atom_site_occupancy
  _atom_site_fract_x
  _atom_site_fract_y
  _atom_site_fract_z
  _atom_site_thermal_displace_type
  _atom_site_B_iso_or_equiv
  _atom_site_type_symbol
  Rh1      1.0000 0.00000  0.00071  0.49961  Biso   1.000  Rh
  Se1      1.0000 1.00000  0.31282  0.60831  Biso   1.000  Se
  Rh2      1.0000 0.50000  0.50062  0.50032  Biso   1.000  Rh
  Se2      1.0000 0.00000  0.68561  0.39175  Biso   1.000  Se
