data_image0
_cell_length_a       3.84417
_cell_length_b       3.84662
_cell_length_c       18.8558
_cell_angle_alpha    90
_cell_angle_beta     90
_cell_angle_gamma    119.979

_symmetry_space_group_name_H-M    "P 1"
_symmetry_int_tables_number       1

loop_
  _symmetry_equiv_pos_as_xyz
  'x, y, z'

loop_
  _atom_site_label
  _atom_site_occupancy
  _atom_site_fract_x
  _atom_site_fract_y
  _atom_site_fract_z
  _atom_site_thermal_displace_type
  _atom_site_B_iso_or_equiv
  _atom_site_type_symbol
  S1       1.0000 0.00003  0.00008  0.41995  Biso   1.000  S
  S2       1.0000 0.33330  0.66659  0.58012  Biso   1.000  S
  Rh1      1.0000 0.00004  0.00018  0.54534  Biso   1.000  Rh
  Rh2      1.0000 0.33329  0.66649  0.45472  Biso   1.000  Rh
