data_image0
_cell_length_a       3.28023
_cell_length_b       3.28023
_cell_length_c       20.1025
_cell_angle_alpha    90
_cell_angle_beta     90
_cell_angle_gamma    120

_symmetry_space_group_name_H-M    "P 1"
_symmetry_int_tables_number       1

loop_
  _symmetry_equiv_pos_as_xyz
  'x, y, z'

loop_
  _atom_site_label
  _atom_site_occupancy
  _atom_site_fract_x
  _atom_site_fract_y
  _atom_site_fract_z
  _atom_site_thermal_displace_type
  _atom_site_B_iso_or_equiv
  _atom_site_type_symbol
  Rh1      1.0000 0.33330  0.66657  0.56730  Biso   1.000  Rh
  S1       1.0000 0.66666  0.33330  0.37309  Biso   1.000  S
  S2       1.0000 0.99997  0.99998  0.62691  Biso   1.000  S
  Rh2      1.0000 0.33324  0.66653  0.43270  Biso   1.000  Rh
