data_image0
_cell_length_a       2.81292
_cell_length_b       4.75878
_cell_length_c       17.459
_cell_angle_alpha    90
_cell_angle_beta     90
_cell_angle_gamma    90

_symmetry_space_group_name_H-M    "P 1"
_symmetry_int_tables_number       1

loop_
  _symmetry_equiv_pos_as_xyz
  'x, y, z'

loop_
  _atom_site_label
  _atom_site_occupancy
  _atom_site_fract_x
  _atom_site_fract_y
  _atom_site_fract_z
  _atom_site_thermal_displace_type
  _atom_site_B_iso_or_equiv
  _atom_site_type_symbol
  Rh1      1.0000 1.00000  0.99542  0.49121  Biso   1.000  Rh
  S1       1.0000 1.00000  0.30913  0.58944  Biso   1.000  S
  Rh2      1.0000 0.50000  0.49541  0.49157  Biso   1.000  Rh
  S2       1.0000 1.00000  0.67993  0.39341  Biso   1.000  S
