data_image0
_cell_length_a       3.63901
_cell_length_b       6.04927
_cell_length_c       17.7927
_cell_angle_alpha    90
_cell_angle_beta     90
_cell_angle_gamma    90

_symmetry_space_group_name_H-M    "P 1"
_symmetry_int_tables_number       1

loop_
  _symmetry_equiv_pos_as_xyz
  'x, y, z'

loop_
  _atom_site_label
  _atom_site_occupancy
  _atom_site_fract_x
  _atom_site_fract_y
  _atom_site_fract_z
  _atom_site_thermal_displace_type
  _atom_site_B_iso_or_equiv
  _atom_site_type_symbol
  Rh1      1.0000 0.00000  0.02323  0.50473  Biso   1.000  Rh
  Se1      1.0000 0.50000  0.16714  0.58739  Biso   1.000  Se
  Se2      1.0000 0.00000  0.33286  0.41261  Biso   1.000  Se
  Rh2      1.0000 0.50000  0.47677  0.49527  Biso   1.000  Rh
  Se3      1.0000 1.00000  0.65681  0.57128  Biso   1.000  Se
  Se4      1.0000 0.50000  0.84319  0.42872  Biso   1.000  Se
