data_image0
_cell_length_a       6.45063
_cell_length_b       6.5593
_cell_length_c       16.6
_cell_angle_alpha    90
_cell_angle_beta     90
_cell_angle_gamma    90

_symmetry_space_group_name_H-M    "P 1"
_symmetry_int_tables_number       1

loop_
  _symmetry_equiv_pos_as_xyz
  'x, y, z'

loop_
  _atom_site_label
  _atom_site_occupancy
  _atom_site_fract_x
  _atom_site_fract_y
  _atom_site_fract_z
  _atom_site_thermal_displace_type
  _atom_site_B_iso_or_equiv
  _atom_site_type_symbol
  Rh1      1.0000 0.50000  0.00000  0.50000  Biso   1.000  Rh
  Rh2      1.0000 1.00000  0.50000  0.50000  Biso   1.000  Rh
  Te1      1.0000 0.13774  0.14343  0.46792  Biso   1.000  Te
  Te2      1.0000 0.63774  0.35657  0.53208  Biso   1.000  Te
  Te3      1.0000 0.86226  0.85657  0.53208  Biso   1.000  Te
  Te4      1.0000 0.36226  0.64343  0.46792  Biso   1.000  Te
