data_image0
_cell_length_a       3.66
_cell_length_b       3.66002
_cell_length_c       20.3912
_cell_angle_alpha    90
_cell_angle_beta     90
_cell_angle_gamma    120

_symmetry_space_group_name_H-M    "P 1"
_symmetry_int_tables_number       1

loop_
  _symmetry_equiv_pos_as_xyz
  'x, y, z'

loop_
  _atom_site_label
  _atom_site_occupancy
  _atom_site_fract_x
  _atom_site_fract_y
  _atom_site_fract_z
  _atom_site_thermal_displace_type
  _atom_site_B_iso_or_equiv
  _atom_site_type_symbol
  Rh1      1.0000 0.33343  0.66684  0.56380  Biso   1.000  Rh
  Te1      1.0000 0.66673  0.33343  0.36780  Biso   1.000  Te
  Te2      1.0000 0.00003  0.00008  0.63220  Biso   1.000  Te
  Rh2      1.0000 0.33347  0.66696  0.43620  Biso   1.000  Rh
