data_image0
_cell_length_a       6.11185
_cell_length_b       3.74265
_cell_length_c       21.5185
_cell_angle_alpha    90
_cell_angle_beta     90
_cell_angle_gamma    90

_symmetry_space_group_name_H-M    "P 1"
_symmetry_int_tables_number       1

loop_
  _symmetry_equiv_pos_as_xyz
  'x, y, z'

loop_
  _atom_site_label
  _atom_site_occupancy
  _atom_site_fract_x
  _atom_site_fract_y
  _atom_site_fract_z
  _atom_site_thermal_displace_type
  _atom_site_B_iso_or_equiv
  _atom_site_type_symbol
  Rh1      1.0000 0.49832  0.25275  0.58072  Biso   1.000  Rh
  Rh2      1.0000 0.29344  0.75209  0.41932  Biso   1.000  Rh
  Te1      1.0000 0.16474  0.25216  0.49991  Biso   1.000  Te
  Te2      1.0000 0.62703  0.75268  0.50013  Biso   1.000  Te
  Te3      1.0000 0.51365  0.25206  0.34884  Biso   1.000  Te
  Te4      1.0000 0.27800  0.75279  0.65118  Biso   1.000  Te
  Te5      1.0000 0.04460  0.25202  0.35044  Biso   1.000  Te
  Te6      1.0000 0.74703  0.75282  0.64962  Biso   1.000  Te
