data_image0
_cell_length_a       3.83736
_cell_length_b       6.45886
_cell_length_c       17.9449
_cell_angle_alpha    90
_cell_angle_beta     90
_cell_angle_gamma    90

_symmetry_space_group_name_H-M    "P 1"
_symmetry_int_tables_number       1

loop_
  _symmetry_equiv_pos_as_xyz
  'x, y, z'

loop_
  _atom_site_label
  _atom_site_occupancy
  _atom_site_fract_x
  _atom_site_fract_y
  _atom_site_fract_z
  _atom_site_thermal_displace_type
  _atom_site_B_iso_or_equiv
  _atom_site_type_symbol
  Rh1      1.0000 0.00000  0.01807  0.50259  Biso   1.000  Rh
  Te1      1.0000 0.50000  0.16469  0.59129  Biso   1.000  Te
  Te2      1.0000 0.00000  0.33530  0.40871  Biso   1.000  Te
  Rh2      1.0000 0.50000  0.48192  0.49741  Biso   1.000  Rh
  Te3      1.0000 1.00000  0.66027  0.57810  Biso   1.000  Te
  Te4      1.0000 0.50000  0.83973  0.42190  Biso   1.000  Te
