data_image0
_cell_length_a       4.18356
_cell_length_b       4.18455
_cell_length_c       18.8558
_cell_angle_alpha    90
_cell_angle_beta     90
_cell_angle_gamma    119.992

_symmetry_space_group_name_H-M    "P 1"
_symmetry_int_tables_number       1

loop_
  _symmetry_equiv_pos_as_xyz
  'x, y, z'

loop_
  _atom_site_label
  _atom_site_occupancy
  _atom_site_fract_x
  _atom_site_fract_y
  _atom_site_fract_z
  _atom_site_thermal_displace_type
  _atom_site_B_iso_or_equiv
  _atom_site_type_symbol
  Te1      1.0000 0.00001  0.00004  0.40737  Biso   1.000  Te
  Te2      1.0000 0.33332  0.66663  0.59270  Biso   1.000  Te
  Rh1      1.0000 1.00000  0.00008  0.54550  Biso   1.000  Rh
  Rh2      1.0000 0.33334  0.66659  0.45457  Biso   1.000  Rh
