data_image0
_cell_length_a       6.41364
_cell_length_b       7.05273
_cell_length_c       17.8093
_cell_angle_alpha    90
_cell_angle_beta     90
_cell_angle_gamma    116.589

_symmetry_space_group_name_H-M    "P 1"
_symmetry_int_tables_number       1

loop_
  _symmetry_equiv_pos_as_xyz
  'x, y, z'

loop_
  _atom_site_label
  _atom_site_occupancy
  _atom_site_fract_x
  _atom_site_fract_y
  _atom_site_fract_z
  _atom_site_thermal_displace_type
  _atom_site_B_iso_or_equiv
  _atom_site_type_symbol
  Rh1      1.0000 0.98128  0.95169  0.49689  Biso   1.000  Rh
  Rh2      1.0000 0.90050  0.42789  0.50312  Biso   1.000  Rh
  Rh3      1.0000 0.48130  0.45172  0.49683  Biso   1.000  Rh
  Rh4      1.0000 0.40048  0.92786  0.50317  Biso   1.000  Rh
  S1       1.0000 0.30626  0.13882  0.42170  Biso   1.000  S
  S2       1.0000 0.57552  0.24076  0.57830  Biso   1.000  S
  S3       1.0000 0.80634  0.63901  0.42170  Biso   1.000  S
  S4       1.0000 0.07545  0.74057  0.57830  Biso   1.000  S
  S5       1.0000 0.12116  0.27805  0.56744  Biso   1.000  S
  S6       1.0000 0.76063  0.10153  0.43256  Biso   1.000  S
  S7       1.0000 0.62111  0.77797  0.56743  Biso   1.000  S
  S8       1.0000 0.26067  0.60161  0.43257  Biso   1.000  S
