data_image0
_cell_length_a       6.63858
_cell_length_b       7.38697
_cell_length_c       18.2139
_cell_angle_alpha    90
_cell_angle_beta     90
_cell_angle_gamma    116.252

_symmetry_space_group_name_H-M    "P 1"
_symmetry_int_tables_number       1

loop_
  _symmetry_equiv_pos_as_xyz
  'x, y, z'

loop_
  _atom_site_label
  _atom_site_occupancy
  _atom_site_fract_x
  _atom_site_fract_y
  _atom_site_fract_z
  _atom_site_thermal_displace_type
  _atom_site_B_iso_or_equiv
  _atom_site_type_symbol
  Rh1      1.0000 0.98324  0.95146  0.49722  Biso   1.000  Rh
  Rh2      1.0000 0.89854  0.42812  0.50277  Biso   1.000  Rh
  Rh3      1.0000 0.48329  0.45136  0.49721  Biso   1.000  Rh
  Rh4      1.0000 0.39849  0.92822  0.50279  Biso   1.000  Rh
  Se1      1.0000 0.30738  0.14180  0.41832  Biso   1.000  Se
  Se2      1.0000 0.57440  0.23778  0.58167  Biso   1.000  Se
  Se3      1.0000 0.80732  0.64175  0.41831  Biso   1.000  Se
  Se4      1.0000 0.07446  0.73783  0.58168  Biso   1.000  Se
  Se5      1.0000 0.12064  0.27655  0.57076  Biso   1.000  Se
  Se6      1.0000 0.76114  0.10303  0.42924  Biso   1.000  Se
  Se7      1.0000 0.62050  0.77649  0.57077  Biso   1.000  Se
  Se8      1.0000 0.26128  0.60310  0.42922  Biso   1.000  Se
