data_image0
_cell_length_a       6.93815
_cell_length_b       6.93815
_cell_length_c       18.1704
_cell_angle_alpha    90
_cell_angle_beta     90
_cell_angle_gamma    120

_symmetry_space_group_name_H-M    "P 1"
_symmetry_int_tables_number       1

loop_
  _symmetry_equiv_pos_as_xyz
  'x, y, z'

loop_
  _atom_site_label
  _atom_site_occupancy
  _atom_site_fract_x
  _atom_site_fract_y
  _atom_site_fract_z
  _atom_site_thermal_displace_type
  _atom_site_B_iso_or_equiv
  _atom_site_type_symbol
  Ru1      1.0000 0.66667  0.33333  0.49991  Biso   1.000  Ru
  Ru2      1.0000 0.33333  0.66667  0.50009  Biso   1.000  Ru
  Br1      1.0000 0.49801  0.99956  0.41264  Biso   1.000  Br
  Br2      1.0000 0.50155  0.50199  0.41264  Biso   1.000  Br
  Br3      1.0000 0.00044  0.49845  0.41264  Biso   1.000  Br
  Br4      1.0000 0.49808  0.99970  0.58736  Biso   1.000  Br
  Br5      1.0000 0.50161  0.50192  0.58736  Biso   1.000  Br
  Br6      1.0000 0.00030  0.49839  0.58736  Biso   1.000  Br
