data_image0
_cell_length_a       3.50851
_cell_length_b       3.5087
_cell_length_c       18.8558
_cell_angle_alpha    90
_cell_angle_beta     90
_cell_angle_gamma    119.998

_symmetry_space_group_name_H-M    "P 1"
_symmetry_int_tables_number       1

loop_
  _symmetry_equiv_pos_as_xyz
  'x, y, z'

loop_
  _atom_site_label
  _atom_site_occupancy
  _atom_site_fract_x
  _atom_site_fract_y
  _atom_site_fract_z
  _atom_site_thermal_displace_type
  _atom_site_B_iso_or_equiv
  _atom_site_type_symbol
  Br1      1.0000 0.99976  0.00026  0.36800  Biso   1.000  Br
  Br2      1.0000 0.33358  0.66640  0.63207  Biso   1.000  Br
  Ru1      1.0000 0.00000  0.00002  0.53487  Biso   1.000  Ru
  Ru2      1.0000 0.33333  0.66665  0.46520  Biso   1.000  Ru
