data_image0
_cell_length_a       6.06638
_cell_length_b       6.06638
_cell_length_c       17.6535
_cell_angle_alpha    90
_cell_angle_beta     90
_cell_angle_gamma    120

_symmetry_space_group_name_H-M    "P 1"
_symmetry_int_tables_number       1

loop_
  _symmetry_equiv_pos_as_xyz
  'x, y, z'

loop_
  _atom_site_label
  _atom_site_occupancy
  _atom_site_fract_x
  _atom_site_fract_y
  _atom_site_fract_z
  _atom_site_thermal_displace_type
  _atom_site_B_iso_or_equiv
  _atom_site_type_symbol
  Ru1      1.0000 0.66667  0.33333  0.50000  Biso   1.000  Ru
  Ru2      1.0000 0.33333  0.66667  0.50000  Biso   1.000  Ru
  Cl1      1.0000 0.64494  1.00000  0.42447  Biso   1.000  Cl
  Cl2      1.0000 0.35506  0.35506  0.42447  Biso   1.000  Cl
  Cl3      1.0000 0.00000  0.64494  0.42447  Biso   1.000  Cl
  Cl4      1.0000 0.35506  0.00000  0.57553  Biso   1.000  Cl
  Cl5      1.0000 0.64494  0.64494  0.57553  Biso   1.000  Cl
  Cl6      1.0000 1.00000  0.35506  0.57553  Biso   1.000  Cl
