data_image0
_cell_length_a       2.66939
_cell_length_b       4.83056
_cell_length_c       17.1105
_cell_angle_alpha    90
_cell_angle_beta     90
_cell_angle_gamma    90

_symmetry_space_group_name_H-M    "P 1"
_symmetry_int_tables_number       1

loop_
  _symmetry_equiv_pos_as_xyz
  'x, y, z'

loop_
  _atom_site_label
  _atom_site_occupancy
  _atom_site_fract_x
  _atom_site_fract_y
  _atom_site_fract_z
  _atom_site_thermal_displace_type
  _atom_site_B_iso_or_equiv
  _atom_site_type_symbol
  Ru1      1.0000 0.00000  0.03418  0.48858  Biso   1.000  Ru
  O1       1.0000 1.00000  0.30286  0.57391  Biso   1.000  O
  Ru2      1.0000 0.50000  0.47782  0.50116  Biso   1.000  Ru
  O2       1.0000 0.00000  0.68492  0.43634  Biso   1.000  O
