data_image0
_cell_length_a       5.97541
_cell_length_b       5.97661
_cell_length_c       18.4116
_cell_angle_alpha    90
_cell_angle_beta     90
_cell_angle_gamma    119.993

_symmetry_space_group_name_H-M    "P 1"
_symmetry_int_tables_number       1

loop_
  _symmetry_equiv_pos_as_xyz
  'x, y, z'

loop_
  _atom_site_label
  _atom_site_occupancy
  _atom_site_fract_x
  _atom_site_fract_y
  _atom_site_fract_z
  _atom_site_thermal_displace_type
  _atom_site_B_iso_or_equiv
  _atom_site_type_symbol
  Ru1      1.0000 0.99998  0.00000  0.49754  Biso   1.000  Ru
  Ru2      1.0000 0.33329  0.66663  0.49737  Biso   1.000  Ru
  P1       1.0000 0.66674  0.33335  0.43561  Biso   1.000  P
  P2       1.0000 0.66668  0.33336  0.55326  Biso   1.000  P
  S1       1.0000 0.29259  0.95945  0.42422  Biso   1.000  S
  S2       1.0000 0.04044  0.33310  0.42418  Biso   1.000  S
  S3       1.0000 0.66685  0.70734  0.42421  Biso   1.000  S
  S4       1.0000 0.00426  0.67075  0.58119  Biso   1.000  S
  S5       1.0000 0.32934  0.33356  0.58123  Biso   1.000  S
  S6       1.0000 0.66652  0.99585  0.58120  Biso   1.000  S
