data_image0
_cell_length_a       6.34656
_cell_length_b       6.34812
_cell_length_c       18.4116
_cell_angle_alpha    90
_cell_angle_beta     90
_cell_angle_gamma    119.992

_symmetry_space_group_name_H-M    "P 1"
_symmetry_int_tables_number       1

loop_
  _symmetry_equiv_pos_as_xyz
  'x, y, z'

loop_
  _atom_site_label
  _atom_site_occupancy
  _atom_site_fract_x
  _atom_site_fract_y
  _atom_site_fract_z
  _atom_site_thermal_displace_type
  _atom_site_B_iso_or_equiv
  _atom_site_type_symbol
  Ru1      1.0000 1.00000  0.99999  0.50002  Biso   1.000  Ru
  Ru2      1.0000 0.33334  0.66669  0.50001  Biso   1.000  Ru
  P1       1.0000 0.66667  0.33335  0.44137  Biso   1.000  P
  P2       1.0000 0.66667  0.33333  0.55864  Biso   1.000  P
  Se1      1.0000 0.30309  0.96968  0.41963  Biso   1.000  Se
  Se2      1.0000 0.03022  0.33336  0.41962  Biso   1.000  Se
  Se3      1.0000 0.66660  0.69686  0.41962  Biso   1.000  Se
  Se4      1.0000 0.03031  0.69708  0.58037  Biso   1.000  Se
  Se5      1.0000 0.30305  0.33331  0.58038  Biso   1.000  Se
  Se6      1.0000 0.66676  0.96976  0.58038  Biso   1.000  Se
