data_image0
_cell_length_a       6.85209
_cell_length_b       6.85302
_cell_length_c       18.4116
_cell_angle_alpha    90
_cell_angle_beta     90
_cell_angle_gamma    119.996

_symmetry_space_group_name_H-M    "P 1"
_symmetry_int_tables_number       1

loop_
  _symmetry_equiv_pos_as_xyz
  'x, y, z'

loop_
  _atom_site_label
  _atom_site_occupancy
  _atom_site_fract_x
  _atom_site_fract_y
  _atom_site_fract_z
  _atom_site_thermal_displace_type
  _atom_site_B_iso_or_equiv
  _atom_site_type_symbol
  Ru1      1.0000 0.00000  0.00001  0.50003  Biso   1.000  Ru
  Ru2      1.0000 0.33334  0.66667  0.49996  Biso   1.000  Ru
  P1       1.0000 0.66668  0.33335  0.44138  Biso   1.000  P
  P2       1.0000 0.66666  0.33333  0.55866  Biso   1.000  P
  Te1      1.0000 0.29492  0.96163  0.41617  Biso   1.000  Te
  Te2      1.0000 0.03835  0.33326  0.41617  Biso   1.000  Te
  Te3      1.0000 0.66671  0.70506  0.41617  Biso   1.000  Te
  Te4      1.0000 0.03846  0.70511  0.58383  Biso   1.000  Te
  Te5      1.0000 0.29493  0.33340  0.58383  Biso   1.000  Te
  Te6      1.0000 0.66665  0.96158  0.58383  Biso   1.000  Te
