data_image0
_cell_length_a       2.93155
_cell_length_b       4.28036
_cell_length_c       17.6481
_cell_angle_alpha    90
_cell_angle_beta     90
_cell_angle_gamma    90

_symmetry_space_group_name_H-M    "P 1"
_symmetry_int_tables_number       1

loop_
  _symmetry_equiv_pos_as_xyz
  'x, y, z'

loop_
  _atom_site_label
  _atom_site_occupancy
  _atom_site_fract_x
  _atom_site_fract_y
  _atom_site_fract_z
  _atom_site_thermal_displace_type
  _atom_site_B_iso_or_equiv
  _atom_site_type_symbol
  Ru1      1.0000 0.00000  0.07158  0.48259  Biso   1.000  Ru
  Se1      1.0000 1.00000  0.28690  0.60833  Biso   1.000  Se
  Ru2      1.0000 0.50000  0.58667  0.52383  Biso   1.000  Ru
  Se2      1.0000 0.00000  0.56012  0.40330  Biso   1.000  Se
