data_image0
_cell_length_a       5.73245
_cell_length_b       5.73231
_cell_length_c       16.3627
_cell_angle_alpha    90
_cell_angle_beta     90
_cell_angle_gamma    90

_symmetry_space_group_name_H-M    "P 1"
_symmetry_int_tables_number       1

loop_
  _symmetry_equiv_pos_as_xyz
  'x, y, z'

loop_
  _atom_site_label
  _atom_site_occupancy
  _atom_site_fract_x
  _atom_site_fract_y
  _atom_site_fract_z
  _atom_site_thermal_displace_type
  _atom_site_B_iso_or_equiv
  _atom_site_type_symbol
  Ru1      1.0000 0.50000  0.00000  0.50000  Biso   1.000  Ru
  Ru2      1.0000 0.00000  0.50000  0.50000  Biso   1.000  Ru
  S1       1.0000 0.13323  0.13326  0.49997  Biso   1.000  S
  S2       1.0000 0.63323  0.36674  0.50003  Biso   1.000  S
  S3       1.0000 0.86677  0.86674  0.50003  Biso   1.000  S
  S4       1.0000 0.36677  0.63326  0.49997  Biso   1.000  S
