data_image0
_cell_length_a       3.4749
_cell_length_b       3.47502
_cell_length_c       19.802
_cell_angle_alpha    90
_cell_angle_beta     90
_cell_angle_gamma    119.999

_symmetry_space_group_name_H-M    "P 1"
_symmetry_int_tables_number       1

loop_
  _symmetry_equiv_pos_as_xyz
  'x, y, z'

loop_
  _atom_site_label
  _atom_site_occupancy
  _atom_site_fract_x
  _atom_site_fract_y
  _atom_site_fract_z
  _atom_site_thermal_displace_type
  _atom_site_B_iso_or_equiv
  _atom_site_type_symbol
  Ru1      1.0000 0.33333  0.66666  0.56178  Biso   1.000  Ru
  S1       1.0000 0.66668  0.33331  0.38962  Biso   1.000  S
  S2       1.0000 0.99998  0.00003  0.61038  Biso   1.000  S
  Ru2      1.0000 0.33333  0.66667  0.43822  Biso   1.000  Ru
