data_image0
_cell_length_a       3.69937
_cell_length_b       3.69937
_cell_length_c       19.4055
_cell_angle_alpha    90
_cell_angle_beta     90
_cell_angle_gamma    120

_symmetry_space_group_name_H-M    "P 1"
_symmetry_int_tables_number       1

loop_
  _symmetry_equiv_pos_as_xyz
  'x, y, z'

loop_
  _atom_site_label
  _atom_site_occupancy
  _atom_site_fract_x
  _atom_site_fract_y
  _atom_site_fract_z
  _atom_site_thermal_displace_type
  _atom_site_B_iso_or_equiv
  _atom_site_type_symbol
  Ru1      1.0000 0.33337  0.66674  0.56086  Biso   1.000  Ru
  Se1      1.0000 0.66670  0.33333  0.38649  Biso   1.000  Se
  Se2      1.0000 0.99999  0.00004  0.61351  Biso   1.000  Se
  Ru2      1.0000 0.33337  0.66675  0.43914  Biso   1.000  Ru
