data_image0
_cell_length_a       6.16013
_cell_length_b       3.60728
_cell_length_c       21.6309
_cell_angle_alpha    90
_cell_angle_beta     90
_cell_angle_gamma    90

_symmetry_space_group_name_H-M    "P 1"
_symmetry_int_tables_number       1

loop_
  _symmetry_equiv_pos_as_xyz
  'x, y, z'

loop_
  _atom_site_label
  _atom_site_occupancy
  _atom_site_fract_x
  _atom_site_fract_y
  _atom_site_fract_z
  _atom_site_thermal_displace_type
  _atom_site_B_iso_or_equiv
  _atom_site_type_symbol
  Ru1      1.0000 0.47157  0.25000  0.58500  Biso   1.000  Ru
  Ru2      1.0000 0.29165  0.75000  0.41500  Biso   1.000  Ru
  Te1      1.0000 0.15196  0.25000  0.49910  Biso   1.000  Te
  Te2      1.0000 0.61126  0.75000  0.50090  Biso   1.000  Te
  Te3      1.0000 0.53845  0.25000  0.34852  Biso   1.000  Te
  Te4      1.0000 0.22477  0.75000  0.65148  Biso   1.000  Te
  Te5      1.0000 0.06887  0.25000  0.34714  Biso   1.000  Te
  Te6      1.0000 0.69435  0.75000  0.65287  Biso   1.000  Te
