data_image0
_cell_length_a       2.95944
_cell_length_b       3.79933
_cell_length_c       17.8273
_cell_angle_alpha    90
_cell_angle_beta     90
_cell_angle_gamma    90

_symmetry_space_group_name_H-M    "P 1"
_symmetry_int_tables_number       1

loop_
  _symmetry_equiv_pos_as_xyz
  'x, y, z'

loop_
  _atom_site_label
  _atom_site_occupancy
  _atom_site_fract_x
  _atom_site_fract_y
  _atom_site_fract_z
  _atom_site_thermal_displace_type
  _atom_site_B_iso_or_equiv
  _atom_site_type_symbol
  Ru1      1.0000 0.00000  0.99976  0.46562  Biso   1.000  Ru
  Te1      1.0000 0.00000  0.50033  0.64562  Biso   1.000  Te
  Ru2      1.0000 0.50000  0.49963  0.52484  Biso   1.000  Ru
  Te2      1.0000 0.00000  0.49989  0.36393  Biso   1.000  Te
