data_image0
_cell_length_a       3.81472
_cell_length_b       6.14396
_cell_length_c       18.144
_cell_angle_alpha    90
_cell_angle_beta     90
_cell_angle_gamma    90

_symmetry_space_group_name_H-M    "P 1"
_symmetry_int_tables_number       1

loop_
  _symmetry_equiv_pos_as_xyz
  'x, y, z'

loop_
  _atom_site_label
  _atom_site_occupancy
  _atom_site_fract_x
  _atom_site_fract_y
  _atom_site_fract_z
  _atom_site_thermal_displace_type
  _atom_site_B_iso_or_equiv
  _atom_site_type_symbol
  Ru1      1.0000 0.00000  0.05714  0.50234  Biso   1.000  Ru
  Te1      1.0000 0.50000  0.15642  0.59965  Biso   1.000  Te
  Te2      1.0000 0.00000  0.34358  0.40035  Biso   1.000  Te
  Ru2      1.0000 0.50000  0.44286  0.49766  Biso   1.000  Ru
  Te3      1.0000 0.00000  0.65792  0.57213  Biso   1.000  Te
  Te4      1.0000 0.50000  0.84208  0.42787  Biso   1.000  Te
