data_image0
_cell_length_a       8.3479
_cell_length_b       8.3479
_cell_length_c       20
_cell_angle_alpha    90
_cell_angle_beta     90
_cell_angle_gamma    60.0008

_symmetry_space_group_name_H-M    "P 1"
_symmetry_int_tables_number       1

loop_
  _symmetry_equiv_pos_as_xyz
  'x, y, z'

loop_
  _atom_site_label
  _atom_site_occupancy
  _atom_site_fract_x
  _atom_site_fract_y
  _atom_site_fract_z
  _atom_site_thermal_displace_type
  _atom_site_B_iso_or_equiv
  _atom_site_type_symbol
  Si1      1.0000 0.98863  0.98863  0.37500  Biso   1.000  Si
  Sb1      1.0000 0.16668  0.16668  0.37500  Biso   1.000  Sb
  Si2      1.0000 0.52274  0.98862  0.37500  Biso   1.000  Si
  Si3      1.0000 0.98862  0.52274  0.37500  Biso   1.000  Si
  Si4      1.0000 0.67805  0.14392  0.37500  Biso   1.000  Si
  Si5      1.0000 0.14392  0.67805  0.37500  Biso   1.000  Si
  Sb2      1.0000 0.49999  0.49999  0.37500  Biso   1.000  Sb
  Si6      1.0000 0.67804  0.67804  0.37500  Biso   1.000  Si
