data_image0
_cell_length_a       3.99499
_cell_length_b       3.99525
_cell_length_c       18.8558
_cell_angle_alpha    90
_cell_angle_beta     90
_cell_angle_gamma    119.998

_symmetry_space_group_name_H-M    "P 1"
_symmetry_int_tables_number       1

loop_
  _symmetry_equiv_pos_as_xyz
  'x, y, z'

loop_
  _atom_site_label
  _atom_site_occupancy
  _atom_site_fract_x
  _atom_site_fract_y
  _atom_site_fract_z
  _atom_site_thermal_displace_type
  _atom_site_B_iso_or_equiv
  _atom_site_type_symbol
  Se1      1.0000 0.99995  0.00007  0.35239  Biso   1.000  Se
  Se2      1.0000 0.33339  0.66660  0.64768  Biso   1.000  Se
  Sb1      1.0000 0.99991  0.00007  0.56572  Biso   1.000  Sb
  Sb2      1.0000 0.33342  0.66660  0.43435  Biso   1.000  Sb
