data_image0
_cell_length_a       4.8164
_cell_length_b       4.81657
_cell_length_c       18.4822
_cell_angle_alpha    90
_cell_angle_beta     90
_cell_angle_gamma    119.999

_symmetry_space_group_name_H-M    "P 1"
_symmetry_int_tables_number       1

loop_
  _symmetry_equiv_pos_as_xyz
  'x, y, z'

loop_
  _atom_site_label
  _atom_site_occupancy
  _atom_site_fract_x
  _atom_site_fract_y
  _atom_site_fract_z
  _atom_site_thermal_displace_type
  _atom_site_B_iso_or_equiv
  _atom_site_type_symbol
  Sb1      1.0000 0.33505  0.67081  0.57836  Biso   1.000  Sb
  Se1      1.0000 0.66984  0.33863  0.40567  Biso   1.000  Se
  Se2      1.0000 0.00158  0.00422  0.59433  Biso   1.000  Se
  Sb2      1.0000 0.33635  0.67200  0.42164  Biso   1.000  Sb
