data_image0
_cell_length_a       6.3021
_cell_length_b       6.48972
_cell_length_c       16.4507
_cell_angle_alpha    90
_cell_angle_beta     90
_cell_angle_gamma    90

_symmetry_space_group_name_H-M    "P 1"
_symmetry_int_tables_number       1

loop_
  _symmetry_equiv_pos_as_xyz
  'x, y, z'

loop_
  _atom_site_label
  _atom_site_occupancy
  _atom_site_fract_x
  _atom_site_fract_y
  _atom_site_fract_z
  _atom_site_thermal_displace_type
  _atom_site_B_iso_or_equiv
  _atom_site_type_symbol
  Sb1      1.0000 0.50000  1.00000  0.50000  Biso   1.000  Sb
  Sb2      1.0000 1.00000  0.50000  0.50000  Biso   1.000  Sb
  Se1      1.0000 0.08268  0.08975  0.44496  Biso   1.000  Se
  Se2      1.0000 0.58268  0.41025  0.55504  Biso   1.000  Se
  Se3      1.0000 0.91732  0.91025  0.55504  Biso   1.000  Se
  Se4      1.0000 0.41732  0.58975  0.44496  Biso   1.000  Se
