data_image0
_cell_length_a       7.0703
_cell_length_b       6.87268
_cell_length_c       16.5885
_cell_angle_alpha    90
_cell_angle_beta     90
_cell_angle_gamma    90

_symmetry_space_group_name_H-M    "P 1"
_symmetry_int_tables_number       1

loop_
  _symmetry_equiv_pos_as_xyz
  'x, y, z'

loop_
  _atom_site_label
  _atom_site_occupancy
  _atom_site_fract_x
  _atom_site_fract_y
  _atom_site_fract_z
  _atom_site_thermal_displace_type
  _atom_site_B_iso_or_equiv
  _atom_site_type_symbol
  Sb1      1.0000 0.50000  0.00000  0.50000  Biso   1.000  Sb
  Sb2      1.0000 1.00000  0.50000  0.50000  Biso   1.000  Sb
  Te1      1.0000 0.10800  0.09716  0.44254  Biso   1.000  Te
  Te2      1.0000 0.60800  0.40284  0.55746  Biso   1.000  Te
  Te3      1.0000 0.89200  0.90284  0.55746  Biso   1.000  Te
  Te4      1.0000 0.39200  0.59716  0.44254  Biso   1.000  Te
