data_image0
_cell_length_a       4.12493
_cell_length_b       4.1256
_cell_length_c       18.8558
_cell_angle_alpha    90
_cell_angle_beta     90
_cell_angle_gamma    119.995

_symmetry_space_group_name_H-M    "P 1"
_symmetry_int_tables_number       1

loop_
  _symmetry_equiv_pos_as_xyz
  'x, y, z'

loop_
  _atom_site_label
  _atom_site_occupancy
  _atom_site_fract_x
  _atom_site_fract_y
  _atom_site_fract_z
  _atom_site_thermal_displace_type
  _atom_site_B_iso_or_equiv
  _atom_site_type_symbol
  Te1      1.0000 0.99989  0.00013  0.34351  Biso   1.000  Te
  Te2      1.0000 0.33345  0.66653  0.65656  Biso   1.000  Te
  Sb1      1.0000 0.99972  0.00026  0.56150  Biso   1.000  Sb
  Sb2      1.0000 0.33361  0.66641  0.43857  Biso   1.000  Sb
