data_image0
_cell_length_a       3.76041
_cell_length_b       6.51292
_cell_length_c       18.3331
_cell_angle_alpha    90
_cell_angle_beta     90
_cell_angle_gamma    90

_symmetry_space_group_name_H-M    "P 1"
_symmetry_int_tables_number       1

loop_
  _symmetry_equiv_pos_as_xyz
  'x, y, z'

loop_
  _atom_site_label
  _atom_site_occupancy
  _atom_site_fract_x
  _atom_site_fract_y
  _atom_site_fract_z
  _atom_site_thermal_displace_type
  _atom_site_B_iso_or_equiv
  _atom_site_type_symbol
  Sc1      1.0000 0.00000  0.01512  0.50042  Biso   1.000  Sc
  Br1      1.0000 0.50000  0.16449  0.59398  Biso   1.000  Br
  Br2      1.0000 0.00000  0.33551  0.40602  Biso   1.000  Br
  Sc2      1.0000 0.50000  0.48488  0.49958  Biso   1.000  Sc
  Br3      1.0000 0.00000  0.66700  0.58769  Biso   1.000  Br
  Br4      1.0000 0.50000  0.83300  0.41231  Biso   1.000  Br
