data_image0
_cell_length_a       5.38912
_cell_length_b       3.7621
_cell_length_c       21.3418
_cell_angle_alpha    90
_cell_angle_beta     90
_cell_angle_gamma    90

_symmetry_space_group_name_H-M    "P 1"
_symmetry_int_tables_number       1

loop_
  _symmetry_equiv_pos_as_xyz
  'x, y, z'

loop_
  _atom_site_label
  _atom_site_occupancy
  _atom_site_fract_x
  _atom_site_fract_y
  _atom_site_fract_z
  _atom_site_thermal_displace_type
  _atom_site_B_iso_or_equiv
  _atom_site_type_symbol
  Sc1      1.0000 0.50000  1.00000  0.44947  Biso   1.000  Sc
  Sc2      1.0000 0.00000  0.50000  0.55053  Biso   1.000  Sc
  Se1      1.0000 0.50000  0.50000  0.54092  Biso   1.000  Se
  Se2      1.0000 0.00000  0.00000  0.45908  Biso   1.000  Se
  Cl1      1.0000 0.50000  0.50000  0.37106  Biso   1.000  Cl
  Cl2      1.0000 0.00000  0.00000  0.62894  Biso   1.000  Cl
