data_image0
_cell_length_a       3.58013
_cell_length_b       6.19616
_cell_length_c       18.0902
_cell_angle_alpha    90
_cell_angle_beta     90
_cell_angle_gamma    90

_symmetry_space_group_name_H-M    "P 1"
_symmetry_int_tables_number       1

loop_
  _symmetry_equiv_pos_as_xyz
  'x, y, z'

loop_
  _atom_site_label
  _atom_site_occupancy
  _atom_site_fract_x
  _atom_site_fract_y
  _atom_site_fract_z
  _atom_site_thermal_displace_type
  _atom_site_B_iso_or_equiv
  _atom_site_type_symbol
  Sc1      1.0000 0.00000  0.01284  0.50037  Biso   1.000  Sc
  Cl1      1.0000 0.50000  0.16457  0.58800  Biso   1.000  Cl
  Cl2      1.0000 0.00000  0.33543  0.41200  Biso   1.000  Cl
  Sc2      1.0000 0.50000  0.48716  0.49963  Biso   1.000  Sc
  Cl3      1.0000 1.00000  0.66754  0.58275  Biso   1.000  Cl
  Cl4      1.0000 0.50000  0.83246  0.41725  Biso   1.000  Cl
