data_image0
_cell_length_a       3.2165
_cell_length_b       3.21836
_cell_length_c       18.8558
_cell_angle_alpha    90
_cell_angle_beta     90
_cell_angle_gamma    119.981

_symmetry_space_group_name_H-M    "P 1"
_symmetry_int_tables_number       1

loop_
  _symmetry_equiv_pos_as_xyz
  'x, y, z'

loop_
  _atom_site_label
  _atom_site_occupancy
  _atom_site_fract_x
  _atom_site_fract_y
  _atom_site_fract_z
  _atom_site_thermal_displace_type
  _atom_site_B_iso_or_equiv
  _atom_site_type_symbol
  F1       1.0000 0.99978  0.00036  0.36832  Biso   1.000  F
  F2       1.0000 0.33355  0.66631  0.63176  Biso   1.000  F
  Sc1      1.0000 0.00013  0.00018  0.56852  Biso   1.000  Sc
  Sc2      1.0000 0.33320  0.66648  0.43155  Biso   1.000  Sc
