data_image0
_cell_length_a       3.79989
_cell_length_b       3.80025
_cell_length_c       18.8558
_cell_angle_alpha    90
_cell_angle_beta     90
_cell_angle_gamma    119.997

_symmetry_space_group_name_H-M    "P 1"
_symmetry_int_tables_number       1

loop_
  _symmetry_equiv_pos_as_xyz
  'x, y, z'

loop_
  _atom_site_label
  _atom_site_occupancy
  _atom_site_fract_x
  _atom_site_fract_y
  _atom_site_fract_z
  _atom_site_thermal_displace_type
  _atom_site_B_iso_or_equiv
  _atom_site_type_symbol
  I1       1.0000 0.99687  0.99670  0.32933  Biso   1.000  I
  I2       1.0000 0.33638  0.66982  0.67124  Biso   1.000  I
  Sc1      1.0000 0.00242  0.00248  0.56614  Biso   1.000  Sc
  Sc2      1.0000 0.33086  0.66410  0.43444  Biso   1.000  Sc
