data_image0
_cell_length_a       6.39582
_cell_length_b       6.39558
_cell_length_c       18.4116
_cell_angle_alpha    90
_cell_angle_beta     90
_cell_angle_gamma    120.001

_symmetry_space_group_name_H-M    "P 1"
_symmetry_int_tables_number       1

loop_
  _symmetry_equiv_pos_as_xyz
  'x, y, z'

loop_
  _atom_site_label
  _atom_site_occupancy
  _atom_site_fract_x
  _atom_site_fract_y
  _atom_site_fract_z
  _atom_site_thermal_displace_type
  _atom_site_B_iso_or_equiv
  _atom_site_type_symbol
  Sc1      1.0000 0.00002  0.00000  0.49711  Biso   1.000  Sc
  Sc2      1.0000 0.33332  0.66666  0.49720  Biso   1.000  Sc
  P1       1.0000 0.66664  0.33333  0.45597  Biso   1.000  P
  P2       1.0000 0.66665  0.33329  0.58063  Biso   1.000  P
  S1       1.0000 0.36214  0.02879  0.41399  Biso   1.000  S
  S2       1.0000 0.97112  0.33336  0.41399  Biso   1.000  S
  S3       1.0000 0.66658  0.63779  0.41399  Biso   1.000  S
  S4       1.0000 0.02641  0.69314  0.57563  Biso   1.000  S
  S5       1.0000 0.30699  0.33329  0.57563  Biso   1.000  S
  S6       1.0000 0.66681  0.97375  0.57563  Biso   1.000  S
