data_image0
_cell_length_a       6.68539
_cell_length_b       6.68529
_cell_length_c       18.4116
_cell_angle_alpha    90
_cell_angle_beta     90
_cell_angle_gamma    120

_symmetry_space_group_name_H-M    "P 1"
_symmetry_int_tables_number       1

loop_
  _symmetry_equiv_pos_as_xyz
  'x, y, z'

loop_
  _atom_site_label
  _atom_site_occupancy
  _atom_site_fract_x
  _atom_site_fract_y
  _atom_site_fract_z
  _atom_site_thermal_displace_type
  _atom_site_B_iso_or_equiv
  _atom_site_type_symbol
  Sc1      1.0000 0.00003  0.00001  0.49662  Biso   1.000  Sc
  Sc2      1.0000 0.33333  0.66667  0.49667  Biso   1.000  Sc
  P1       1.0000 0.66666  0.33334  0.45574  Biso   1.000  P
  P2       1.0000 0.66663  0.33330  0.58072  Biso   1.000  P
  Se1      1.0000 0.35417  0.02077  0.40784  Biso   1.000  Se
  Se2      1.0000 0.97918  0.33339  0.40785  Biso   1.000  Se
  Se3      1.0000 0.66661  0.64582  0.40785  Biso   1.000  Se
  Se4      1.0000 0.03227  0.69897  0.58227  Biso   1.000  Se
  Se5      1.0000 0.30104  0.33333  0.58228  Biso   1.000  Se
  Se6      1.0000 0.66677  0.96781  0.58227  Biso   1.000  Se
