data_image0
_cell_length_a       7.01603
_cell_length_b       7.01735
_cell_length_c       18.4116
_cell_angle_alpha    90
_cell_angle_beta     90
_cell_angle_gamma    119.994

_symmetry_space_group_name_H-M    "P 1"
_symmetry_int_tables_number       1

loop_
  _symmetry_equiv_pos_as_xyz
  'x, y, z'

loop_
  _atom_site_label
  _atom_site_occupancy
  _atom_site_fract_x
  _atom_site_fract_y
  _atom_site_fract_z
  _atom_site_thermal_displace_type
  _atom_site_B_iso_or_equiv
  _atom_site_type_symbol
  Sc1      1.0000 0.00000  0.99998  0.50000  Biso   1.000  Sc
  Sc2      1.0000 0.33334  0.66670  0.49991  Biso   1.000  Sc
  P1       1.0000 0.66668  0.33335  0.43820  Biso   1.000  P
  P2       1.0000 0.66665  0.33332  0.56215  Biso   1.000  P
  Te1      1.0000 0.31535  0.98213  0.39982  Biso   1.000  Te
  Te2      1.0000 0.01788  0.33320  0.39984  Biso   1.000  Te
  Te3      1.0000 0.66676  0.68463  0.39983  Biso   1.000  Te
  Te4      1.0000 0.01854  0.68508  0.60010  Biso   1.000  Te
  Te5      1.0000 0.31493  0.33350  0.60009  Biso   1.000  Te
  Te6      1.0000 0.66656  0.98150  0.60010  Biso   1.000  Te
