data_image0
_cell_length_a       5.25681
_cell_length_b       3.41676
_cell_length_c       21.2067
_cell_angle_alpha    90
_cell_angle_beta     90
_cell_angle_gamma    90

_symmetry_space_group_name_H-M    "P 1"
_symmetry_int_tables_number       1

loop_
  _symmetry_equiv_pos_as_xyz
  'x, y, z'

loop_
  _atom_site_label
  _atom_site_occupancy
  _atom_site_fract_x
  _atom_site_fract_y
  _atom_site_fract_z
  _atom_site_thermal_displace_type
  _atom_site_B_iso_or_equiv
  _atom_site_type_symbol
  Sc1      1.0000 0.63165  0.25000  0.56081  Biso   1.000  Sc
  Sc2      1.0000 0.13157  0.75000  0.43919  Biso   1.000  Sc
  S1       1.0000 0.13169  0.25000  0.52705  Biso   1.000  S
  S2       1.0000 0.63153  0.75000  0.47295  Biso   1.000  S
  S3       1.0000 0.32370  0.25000  0.35224  Biso   1.000  S
  S4       1.0000 0.43953  0.75000  0.64776  Biso   1.000  S
  S5       1.0000 0.93893  0.25000  0.35237  Biso   1.000  S
  S6       1.0000 0.82429  0.75000  0.64763  Biso   1.000  S
