data_image0
_cell_length_a       4.23465
_cell_length_b       4.23824
_cell_length_c       18.8558
_cell_angle_alpha    90
_cell_angle_beta     90
_cell_angle_gamma    119.972

_symmetry_space_group_name_H-M    "P 1"
_symmetry_int_tables_number       1

loop_
  _symmetry_equiv_pos_as_xyz
  'x, y, z'

loop_
  _atom_site_label
  _atom_site_occupancy
  _atom_site_fract_x
  _atom_site_fract_y
  _atom_site_fract_z
  _atom_site_thermal_displace_type
  _atom_site_B_iso_or_equiv
  _atom_site_type_symbol
  S1       1.0000 0.00007  0.00014  0.41685  Biso   1.000  S
  S2       1.0000 0.33327  0.66652  0.58322  Biso   1.000  S
  Sc1      1.0000 0.00008  0.00031  0.55546  Biso   1.000  Sc
  Sc2      1.0000 0.33325  0.66635  0.44461  Biso   1.000  Sc
