data_image0
_cell_length_a       3.75091
_cell_length_b       3.75091
_cell_length_c       20.6248
_cell_angle_alpha    90
_cell_angle_beta     90
_cell_angle_gamma    120

_symmetry_space_group_name_H-M    "P 1"
_symmetry_int_tables_number       1

loop_
  _symmetry_equiv_pos_as_xyz
  'x, y, z'

loop_
  _atom_site_label
  _atom_site_occupancy
  _atom_site_fract_x
  _atom_site_fract_y
  _atom_site_fract_z
  _atom_site_thermal_displace_type
  _atom_site_B_iso_or_equiv
  _atom_site_type_symbol
  Sc1      1.0000 0.33347  0.66667  0.58118  Biso   1.000  Sc
  S1       1.0000 0.66677  0.33326  0.36364  Biso   1.000  S
  S2       1.0000 0.99993  0.00014  0.63636  Biso   1.000  S
  Sc2      1.0000 0.33332  0.66693  0.41882  Biso   1.000  Sc
