data_image0
_cell_length_a       3.64211
_cell_length_b       5.82329
_cell_length_c       17.7377
_cell_angle_alpha    90
_cell_angle_beta     90
_cell_angle_gamma    90

_symmetry_space_group_name_H-M    "P 1"
_symmetry_int_tables_number       1

loop_
  _symmetry_equiv_pos_as_xyz
  'x, y, z'

loop_
  _atom_site_label
  _atom_site_occupancy
  _atom_site_fract_x
  _atom_site_fract_y
  _atom_site_fract_z
  _atom_site_thermal_displace_type
  _atom_site_B_iso_or_equiv
  _atom_site_type_symbol
  Sc1      1.0000 0.00000  0.00001  0.49997  Biso   1.000  Sc
  S1       1.0000 0.00000  0.33298  0.58240  Biso   1.000  S
  Sc2      1.0000 0.50000  0.49992  0.50001  Biso   1.000  Sc
  S2       1.0000 0.00000  0.66687  0.41761  Biso   1.000  S
