data_image0
_cell_length_a       3.85141
_cell_length_b       3.85141
_cell_length_c       20.9456
_cell_angle_alpha    90
_cell_angle_beta     90
_cell_angle_gamma    120

_symmetry_space_group_name_H-M    "P 1"
_symmetry_int_tables_number       1

loop_
  _symmetry_equiv_pos_as_xyz
  'x, y, z'

loop_
  _atom_site_label
  _atom_site_occupancy
  _atom_site_fract_x
  _atom_site_fract_y
  _atom_site_fract_z
  _atom_site_thermal_displace_type
  _atom_site_B_iso_or_equiv
  _atom_site_type_symbol
  Sc1      1.0000 0.33345  0.66677  0.57994  Biso   1.000  Sc
  Se1      1.0000 0.66673  0.33330  0.35807  Biso   1.000  Se
  Se2      1.0000 0.99999  0.00014  0.64193  Biso   1.000  Se
  Sc2      1.0000 0.33344  0.66701  0.42006  Biso   1.000  Sc
