data_image0
_cell_length_a       4.37799
_cell_length_b       4.3802
_cell_length_c       18.8558
_cell_angle_alpha    90
_cell_angle_beta     90
_cell_angle_gamma    119.983

_symmetry_space_group_name_H-M    "P 1"
_symmetry_int_tables_number       1

loop_
  _symmetry_equiv_pos_as_xyz
  'x, y, z'

loop_
  _atom_site_label
  _atom_site_occupancy
  _atom_site_fract_x
  _atom_site_fract_y
  _atom_site_fract_z
  _atom_site_thermal_displace_type
  _atom_site_B_iso_or_equiv
  _atom_site_type_symbol
  Se1      1.0000 0.00004  0.00010  0.40757  Biso   1.000  Se
  Se2      1.0000 0.33330  0.66656  0.59250  Biso   1.000  Se
  Sc1      1.0000 0.00004  0.00019  0.55467  Biso   1.000  Sc
  Sc2      1.0000 0.33330  0.66647  0.44540  Biso   1.000  Sc
