data_image0
_cell_length_a       4.05262
_cell_length_b       4.05262
_cell_length_c       21.4271
_cell_angle_alpha    90
_cell_angle_beta     90
_cell_angle_gamma    120

_symmetry_space_group_name_H-M    "P 1"
_symmetry_int_tables_number       1

loop_
  _symmetry_equiv_pos_as_xyz
  'x, y, z'

loop_
  _atom_site_label
  _atom_site_occupancy
  _atom_site_fract_x
  _atom_site_fract_y
  _atom_site_fract_z
  _atom_site_thermal_displace_type
  _atom_site_B_iso_or_equiv
  _atom_site_type_symbol
  Sc1      1.0000 0.33366  0.66731  0.57855  Biso   1.000  Sc
  Te1      1.0000 0.66708  0.33392  0.35002  Biso   1.000  Te
  Te2      1.0000 0.00019  0.00062  0.64998  Biso   1.000  Te
  Sc2      1.0000 0.33383  0.66768  0.42145  Biso   1.000  Sc
