data_image0
_cell_length_a       4.64568
_cell_length_b       4.65035
_cell_length_c       18.8558
_cell_angle_alpha    90
_cell_angle_beta     90
_cell_angle_gamma    119.967

_symmetry_space_group_name_H-M    "P 1"
_symmetry_int_tables_number       1

loop_
  _symmetry_equiv_pos_as_xyz
  'x, y, z'

loop_
  _atom_site_label
  _atom_site_occupancy
  _atom_site_fract_x
  _atom_site_fract_y
  _atom_site_fract_z
  _atom_site_thermal_displace_type
  _atom_site_B_iso_or_equiv
  _atom_site_type_symbol
  Te1      1.0000 0.00011  0.00006  0.39571  Biso   1.000  Te
  Te2      1.0000 0.33322  0.66661  0.60436  Biso   1.000  Te
  Sc1      1.0000 0.00003  0.00048  0.55341  Biso   1.000  Sc
  Sc2      1.0000 0.33330  0.66618  0.44666  Biso   1.000  Sc
