data_image0
_cell_length_a       3.35009
_cell_length_b       3.35009
_cell_length_c       24.8814
_cell_angle_alpha    90
_cell_angle_beta     90
_cell_angle_gamma    120

_symmetry_space_group_name_H-M    "P 1"
_symmetry_int_tables_number       1

loop_
  _symmetry_equiv_pos_as_xyz
  'x, y, z'

loop_
  _atom_site_label
  _atom_site_occupancy
  _atom_site_fract_x
  _atom_site_fract_y
  _atom_site_fract_z
  _atom_site_thermal_displace_type
  _atom_site_B_iso_or_equiv
  _atom_site_type_symbol
  Sc1      1.0000 0.00000  0.00000  0.50000  Biso   1.000  Sc
  Sc2      1.0000 0.66667  0.33333  0.60178  Biso   1.000  Sc
  Sc3      1.0000 0.66667  0.33333  0.39822  Biso   1.000  Sc
  C1       1.0000 0.33333  0.66667  0.55279  Biso   1.000  C
  C2       1.0000 0.33333  0.66667  0.44721  Biso   1.000  C
  O1       1.0000 0.00000  0.00000  0.65060  Biso   1.000  O
  O2       1.0000 0.00000  0.00000  0.34940  Biso   1.000  O
  H1       1.0000 0.00000  0.00000  0.68964  Biso   1.000  H
  H2       1.0000 0.00000  0.00000  0.31036  Biso   1.000  H
