data_image0
_cell_length_a       3.28227
_cell_length_b       3.28227
_cell_length_c       27.3803
_cell_angle_alpha    90
_cell_angle_beta     90
_cell_angle_gamma    120

_symmetry_space_group_name_H-M    "P 1"
_symmetry_int_tables_number       1

loop_
  _symmetry_equiv_pos_as_xyz
  'x, y, z'

loop_
  _atom_site_label
  _atom_site_occupancy
  _atom_site_fract_x
  _atom_site_fract_y
  _atom_site_fract_z
  _atom_site_thermal_displace_type
  _atom_site_B_iso_or_equiv
  _atom_site_type_symbol
  Sc1      1.0000 0.33333  0.66667  0.44866  Biso   1.000  Sc
  Sc2      1.0000 0.66667  0.33333  0.55137  Biso   1.000  Sc
  Sc3      1.0000 0.00000  0.00000  0.35260  Biso   1.000  Sc
  Sc4      1.0000 0.00000  0.00000  0.64741  Biso   1.000  Sc
  C1       1.0000 0.00000  0.00000  0.50002  Biso   1.000  C
  C2       1.0000 0.66667  0.33333  0.39875  Biso   1.000  C
  C3       1.0000 0.33333  0.66667  0.60127  Biso   1.000  C
  O1       1.0000 0.66667  0.33333  0.69263  Biso   1.000  O
  O2       1.0000 0.33333  0.66667  0.30737  Biso   1.000  O
  H1       1.0000 0.66667  0.33333  0.72806  Biso   1.000  H
  H2       1.0000 0.33333  0.66667  0.27194  Biso   1.000  H
