data_image0
_cell_length_a       4.77806
_cell_length_b       3.60669
_cell_length_c       17.1098
_cell_angle_alpha    90
_cell_angle_beta     90
_cell_angle_gamma    90

_symmetry_space_group_name_H-M    "P 1"
_symmetry_int_tables_number       1

loop_
  _symmetry_equiv_pos_as_xyz
  'x, y, z'

loop_
  _atom_site_label
  _atom_site_occupancy
  _atom_site_fract_x
  _atom_site_fract_y
  _atom_site_fract_z
  _atom_site_thermal_displace_type
  _atom_site_B_iso_or_equiv
  _atom_site_type_symbol
  Se1      1.0000 0.02494  0.99991  0.43435  Biso   1.000  Se
  Se2      1.0000 0.52494  0.49991  0.56565  Biso   1.000  Se
  Si1      1.0000 0.16982  0.99991  0.57340  Biso   1.000  Si
  Si2      1.0000 0.66982  0.49991  0.42660  Biso   1.000  Si
