data_image0
_cell_length_a       7.86925
_cell_length_b       7.7841
_cell_length_c       30.0289
_cell_angle_alpha    90
_cell_angle_beta     90
_cell_angle_gamma    90

_symmetry_space_group_name_H-M    "P 1"
_symmetry_int_tables_number       1

loop_
  _symmetry_equiv_pos_as_xyz
  'x, y, z'

loop_
  _atom_site_label
  _atom_site_occupancy
  _atom_site_fract_x
  _atom_site_fract_y
  _atom_site_fract_z
  _atom_site_thermal_displace_type
  _atom_site_B_iso_or_equiv
  _atom_site_type_symbol
  C1       1.0000 0.04712  0.46666  0.39580  Biso   1.000  C
  C2       1.0000 0.54623  0.03432  0.60569  Biso   1.000  C
  C3       1.0000 0.95608  0.53497  0.60575  Biso   1.000  C
  C4       1.0000 0.45505  0.96665  0.39577  Biso   1.000  C
  H1       1.0000 0.02710  0.33453  0.40641  Biso   1.000  H
  H2       1.0000 0.52635  0.16528  0.59411  Biso   1.000  H
  H3       1.0000 0.97646  0.66582  0.59416  Biso   1.000  H
  H4       1.0000 0.47489  0.83463  0.40648  Biso   1.000  H
  H5       1.0000 0.17516  0.50512  0.40513  Biso   1.000  H
  H6       1.0000 0.67360  0.99404  0.59625  Biso   1.000  H
  H7       1.0000 0.82874  0.49495  0.59622  Biso   1.000  H
  H8       1.0000 0.32690  0.00520  0.40491  Biso   1.000  H
  C5       1.0000 0.01565  0.48821  0.34608  Biso   1.000  C
  C6       1.0000 0.51723  0.01883  0.65569  Biso   1.000  C
  C7       1.0000 0.98450  0.51954  0.65578  Biso   1.000  C
  C8       1.0000 0.48699  0.98787  0.34605  Biso   1.000  C
  H9       1.0000 0.03400  0.62318  0.33685  Biso   1.000  H
  H10      1.0000 0.53525  0.88486  0.66588  Biso   1.000  H
  H11      1.0000 0.96656  0.38548  0.66592  Biso   1.000  H
  H12      1.0000 0.46894  0.12282  0.33680  Biso   1.000  H
  H13      1.0000 0.88316  0.45592  0.33850  Biso   1.000  H
  H14      1.0000 0.38526  0.05276  0.66346  Biso   1.000  H
  H15      1.0000 0.11636  0.55341  0.66365  Biso   1.000  H
  H16      1.0000 0.61940  0.95521  0.33852  Biso   1.000  H
  C9       1.0000 0.13441  0.37370  0.31858  Biso   1.000  C
  C10      1.0000 0.63782  0.13515  0.68210  Biso   1.000  C
  C11      1.0000 0.86328  0.63565  0.68208  Biso   1.000  C
  C12      1.0000 0.36729  0.87381  0.31870  Biso   1.000  C
  H17      1.0000 0.11334  0.23963  0.32803  Biso   1.000  H
  H18      1.0000 0.61744  0.26838  0.67188  Biso   1.000  H
  H19      1.0000 0.88427  0.76892  0.67195  Biso   1.000  H
  H20      1.0000 0.38802  0.73970  0.32815  Biso   1.000  H
  H21      1.0000 0.26623  0.40371  0.32709  Biso   1.000  H
  H22      1.0000 0.76903  0.10342  0.67340  Biso   1.000  H
  H23      1.0000 0.73229  0.60408  0.67312  Biso   1.000  H
  H24      1.0000 0.23579  0.90445  0.32746  Biso   1.000  H
  C13      1.0000 0.10800  0.39446  0.26844  Biso   1.000  C
  C14      1.0000 0.61356  0.11932  0.73242  Biso   1.000  C
  C15      1.0000 0.88665  0.61933  0.73241  Biso   1.000  C
  C16      1.0000 0.39249  0.89442  0.26854  Biso   1.000  C
  H25      1.0000 0.97792  0.36151  0.25887  Biso   1.000  H
  H26      1.0000 0.48420  0.15415  0.74220  Biso   1.000  H
  H27      1.0000 0.01591  0.65386  0.74237  Biso   1.000  H
  H28      1.0000 0.52228  0.86156  0.25871  Biso   1.000  H
  H29      1.0000 0.19390  0.31108  0.24976  Biso   1.000  H
  H30      1.0000 0.70094  0.20398  0.75024  Biso   1.000  H
  H31      1.0000 0.79911  0.70395  0.75018  Biso   1.000  H
  H32      1.0000 0.30609  0.81087  0.25005  Biso   1.000  H
  H33      1.0000 0.13156  0.52675  0.25785  Biso   1.000  H
  H34      1.0000 0.63702  0.98806  0.74383  Biso   1.000  H
  H35      1.0000 0.86288  0.48795  0.74369  Biso   1.000  H
  H36      1.0000 0.36846  0.02668  0.25798  Biso   1.000  H
  N1       1.0000 0.92785  0.57526  0.42249  Biso   1.000  N
  N2       1.0000 0.42491  0.92317  0.58037  Biso   1.000  N
  N3       1.0000 0.07741  0.42352  0.58058  Biso   1.000  N
  N4       1.0000 0.57389  0.07564  0.42248  Biso   1.000  N
  H37      1.0000 0.94409  0.70434  0.41557  Biso   1.000  H
  H38      1.0000 0.44099  0.79492  0.58844  Biso   1.000  H
  H39      1.0000 0.06079  0.29527  0.58850  Biso   1.000  H
  H40      1.0000 0.55680  0.20459  0.41553  Biso   1.000  H
  H41      1.0000 0.94789  0.55795  0.45574  Biso   1.000  H
  H42      1.0000 0.44323  0.93501  0.54689  Biso   1.000  H
  H43      1.0000 0.06007  0.43575  0.54705  Biso   1.000  H
  H44      1.0000 0.55354  0.05818  0.45572  Biso   1.000  H
  H45      1.0000 0.80247  0.54465  0.41577  Biso   1.000  H
  H46      1.0000 0.30004  0.95542  0.58725  Biso   1.000  H
  H47      1.0000 0.20231  0.45516  0.58763  Biso   1.000  H
  H48      1.0000 0.69937  0.04559  0.41578  Biso   1.000  H
  Br1      1.0000 0.47529  0.51302  0.60311  Biso   1.000  Br
  Br2      1.0000 0.97338  0.98611  0.39973  Biso   1.000  Br
  Br3      1.0000 0.52804  0.48617  0.39967  Biso   1.000  Br
  Br4      1.0000 0.02705  0.01350  0.60315  Biso   1.000  Br
  Cl1      1.0000 0.68969  0.79522  0.50182  Biso   1.000  Cl
  Cl2      1.0000 0.20613  0.68543  0.49864  Biso   1.000  Cl
  Cl3      1.0000 0.29582  0.18689  0.49875  Biso   1.000  Cl
  Cl4      1.0000 0.81334  0.29530  0.50275  Biso   1.000  Cl
  Sn1      1.0000 0.50130  0.49793  0.50114  Biso   1.000  Sn
  Sn2      1.0000 0.00199  0.99775  0.50120  Biso   1.000  Sn
