data_image0
_cell_length_a       8.15199
_cell_length_b       8.05822
_cell_length_c       30.6462
_cell_angle_alpha    90
_cell_angle_beta     90
_cell_angle_gamma    90

_symmetry_space_group_name_H-M    "P 1"
_symmetry_int_tables_number       1

loop_
  _symmetry_equiv_pos_as_xyz
  'x, y, z'

loop_
  _atom_site_label
  _atom_site_occupancy
  _atom_site_fract_x
  _atom_site_fract_y
  _atom_site_fract_z
  _atom_site_thermal_displace_type
  _atom_site_B_iso_or_equiv
  _atom_site_type_symbol
  C1       1.0000 0.04940  0.47096  0.39086  Biso   1.000  C
  C2       1.0000 0.54963  0.02921  0.60899  Biso   1.000  C
  C3       1.0000 0.95013  0.52921  0.60904  Biso   1.000  C
  C4       1.0000 0.45072  0.97103  0.39086  Biso   1.000  C
  H1       1.0000 0.03671  0.34198  0.40085  Biso   1.000  H
  H2       1.0000 0.53727  0.15819  0.59899  Biso   1.000  H
  H3       1.0000 0.96241  0.65822  0.59905  Biso   1.000  H
  H4       1.0000 0.46347  0.84207  0.40086  Biso   1.000  H
  H5       1.0000 0.17276  0.51241  0.39881  Biso   1.000  H
  H6       1.0000 0.67298  0.98748  0.60113  Biso   1.000  H
  H7       1.0000 0.82680  0.48743  0.60118  Biso   1.000  H
  H8       1.0000 0.32737  0.01245  0.39882  Biso   1.000  H
  C5       1.0000 0.01022  0.49431  0.34262  Biso   1.000  C
  C6       1.0000 0.51001  0.00604  0.65721  Biso   1.000  C
  C7       1.0000 0.98968  0.50602  0.65727  Biso   1.000  C
  C8       1.0000 0.48977  0.99433  0.34260  Biso   1.000  C
  H9       1.0000 0.02191  0.62592  0.33417  Biso   1.000  H
  H10      1.0000 0.52159  0.87446  0.66569  Biso   1.000  H
  H11      1.0000 0.97803  0.37444  0.66574  Biso   1.000  H
  H12      1.0000 0.47798  0.12594  0.33416  Biso   1.000  H
  H13      1.0000 0.88238  0.45939  0.33655  Biso   1.000  H
  H14      1.0000 0.38211  0.04102  0.66317  Biso   1.000  H
  H15      1.0000 0.11758  0.54095  0.66324  Biso   1.000  H
  H16      1.0000 0.61762  0.95950  0.33652  Biso   1.000  H
  C9       1.0000 0.12332  0.39072  0.31334  Biso   1.000  C
  C10      1.0000 0.62277  0.10969  0.68656  Biso   1.000  C
  C11      1.0000 0.87684  0.60972  0.68659  Biso   1.000  C
  C12      1.0000 0.37667  0.89066  0.31335  Biso   1.000  C
  H17      1.0000 0.10983  0.25951  0.32181  Biso   1.000  H
  H18      1.0000 0.60935  0.24094  0.67812  Biso   1.000  H
  H19      1.0000 0.89044  0.74096  0.67816  Biso   1.000  H
  H20      1.0000 0.39030  0.75947  0.32182  Biso   1.000  H
  H21      1.0000 0.25107  0.42359  0.31993  Biso   1.000  H
  H22      1.0000 0.75063  0.07691  0.68006  Biso   1.000  H
  H23      1.0000 0.74899  0.57705  0.68005  Biso   1.000  H
  H24      1.0000 0.24890  0.92343  0.31997  Biso   1.000  H
  C13      1.0000 0.08642  0.41513  0.26485  Biso   1.000  C
  C14      1.0000 0.58537  0.08489  0.73501  Biso   1.000  C
  C15      1.0000 0.91398  0.58489  0.73506  Biso   1.000  C
  C16      1.0000 0.41336  0.91510  0.26485  Biso   1.000  C
  H25      1.0000 0.96006  0.38030  0.25715  Biso   1.000  H
  H26      1.0000 0.45885  0.11944  0.74262  Biso   1.000  H
  H27      1.0000 0.04048  0.61936  0.74271  Biso   1.000  H
  H28      1.0000 0.53974  0.88037  0.25712  Biso   1.000  H
  H29      1.0000 0.16772  0.33915  0.24473  Biso   1.000  H
  H30      1.0000 0.66630  0.16078  0.75526  Biso   1.000  H
  H31      1.0000 0.83302  0.66088  0.75527  Biso   1.000  H
  H32      1.0000 0.33205  0.83905  0.24475  Biso   1.000  H
  H33      1.0000 0.10330  0.54473  0.25521  Biso   1.000  H
  H34      1.0000 0.60234  0.95521  0.74457  Biso   1.000  H
  H35      1.0000 0.89686  0.45525  0.74462  Biso   1.000  H
  H36      1.0000 0.39638  0.04468  0.25521  Biso   1.000  H
  N1       1.0000 0.93484  0.56937  0.41897  Biso   1.000  N
  N2       1.0000 0.43517  0.93088  0.58084  Biso   1.000  N
  N3       1.0000 0.06465  0.43098  0.58087  Biso   1.000  N
  N4       1.0000 0.56531  0.06949  0.41894  Biso   1.000  N
  H37      1.0000 0.94512  0.69487  0.41240  Biso   1.000  H
  H38      1.0000 0.44536  0.80536  0.58741  Biso   1.000  H
  H39      1.0000 0.05450  0.30546  0.58742  Biso   1.000  H
  H40      1.0000 0.55504  0.19500  0.41235  Biso   1.000  H
  H41      1.0000 0.96009  0.55243  0.45130  Biso   1.000  H
  H42      1.0000 0.46057  0.94783  0.54852  Biso   1.000  H
  H43      1.0000 0.03916  0.44806  0.54856  Biso   1.000  H
  H44      1.0000 0.54011  0.05266  0.45127  Biso   1.000  H
  H45      1.0000 0.81396  0.53643  0.41352  Biso   1.000  H
  H46      1.0000 0.31425  0.96386  0.58625  Biso   1.000  H
  H47      1.0000 0.18554  0.46402  0.58628  Biso   1.000  H
  H48      1.0000 0.68621  0.03654  0.41348  Biso   1.000  H
  I1       1.0000 0.47384  0.50943  0.60659  Biso   1.000  I
  I2       1.0000 0.97393  0.99065  0.39316  Biso   1.000  I
  I3       1.0000 0.52620  0.49076  0.39314  Biso   1.000  I
  I4       1.0000 0.02589  0.00955  0.60656  Biso   1.000  I
  Br1      1.0000 0.69653  0.80494  0.50183  Biso   1.000  Br
  Br2      1.0000 0.19654  0.69530  0.49790  Biso   1.000  Br
  Br3      1.0000 0.30334  0.19532  0.49787  Biso   1.000  Br
  Br4      1.0000 0.80331  0.30492  0.50187  Biso   1.000  Br
  Sn1      1.0000 0.49995  0.50011  0.49988  Biso   1.000  Sn
  Sn2      1.0000 0.00002  0.00011  0.49988  Biso   1.000  Sn
