data_image0
_cell_length_a       7.88643
_cell_length_b       7.7958
_cell_length_c       29.8599
_cell_angle_alpha    90
_cell_angle_beta     90
_cell_angle_gamma    90

_symmetry_space_group_name_H-M    "P 1"
_symmetry_int_tables_number       1

loop_
  _symmetry_equiv_pos_as_xyz
  'x, y, z'

loop_
  _atom_site_label
  _atom_site_occupancy
  _atom_site_fract_x
  _atom_site_fract_y
  _atom_site_fract_z
  _atom_site_thermal_displace_type
  _atom_site_B_iso_or_equiv
  _atom_site_type_symbol
  C1       1.0000 0.03190  0.47414  0.39273  Biso   1.000  C
  C2       1.0000 0.53023  0.02572  0.60721  Biso   1.000  C
  C3       1.0000 0.96810  0.52586  0.60729  Biso   1.000  C
  C4       1.0000 0.46984  0.97426  0.39283  Biso   1.000  C
  H1       1.0000 0.00673  0.34456  0.40460  Biso   1.000  H
  H2       1.0000 0.50468  0.15532  0.59541  Biso   1.000  H
  H3       1.0000 0.99332  0.65545  0.59543  Biso   1.000  H
  H4       1.0000 0.49536  0.84468  0.40464  Biso   1.000  H
  H5       1.0000 0.15855  0.51109  0.40358  Biso   1.000  H
  H6       1.0000 0.65683  0.98905  0.59626  Biso   1.000  H
  H7       1.0000 0.84146  0.48895  0.59641  Biso   1.000  H
  H8       1.0000 0.34326  0.01099  0.40378  Biso   1.000  H
  C5       1.0000 0.01298  0.48711  0.34218  Biso   1.000  C
  C6       1.0000 0.51166  0.01228  0.65773  Biso   1.000  C
  C7       1.0000 0.98690  0.51282  0.65784  Biso   1.000  C
  C8       1.0000 0.48840  0.98761  0.34230  Biso   1.000  C
  H9       1.0000 0.03561  0.61991  0.33166  Biso   1.000  H
  H10      1.0000 0.53461  0.87946  0.66818  Biso   1.000  H
  H11      1.0000 0.96428  0.38000  0.66834  Biso   1.000  H
  H12      1.0000 0.46539  0.12040  0.33184  Biso   1.000  H
  H13      1.0000 0.88233  0.45516  0.33268  Biso   1.000  H
  H14      1.0000 0.38112  0.04419  0.66736  Biso   1.000  H
  H15      1.0000 0.11752  0.54480  0.66737  Biso   1.000  H
  H16      1.0000 0.61898  0.95576  0.33268  Biso   1.000  H
  C9       1.0000 0.13704  0.36656  0.31834  Biso   1.000  C
  C10      1.0000 0.63608  0.13275  0.68145  Biso   1.000  C
  C11      1.0000 0.86276  0.63331  0.68166  Biso   1.000  C
  C12      1.0000 0.36409  0.86702  0.31858  Biso   1.000  C
  H17      1.0000 0.11275  0.23511  0.32950  Biso   1.000  H
  H18      1.0000 0.61154  0.26424  0.67037  Biso   1.000  H
  H19      1.0000 0.88701  0.76477  0.67052  Biso   1.000  H
  H20      1.0000 0.38869  0.73556  0.32967  Biso   1.000  H
  H21      1.0000 0.26627  0.39811  0.32883  Biso   1.000  H
  H22      1.0000 0.76509  0.10116  0.67078  Biso   1.000  H
  H23      1.0000 0.73355  0.60170  0.67117  Biso   1.000  H
  H24      1.0000 0.23503  0.89852  0.32924  Biso   1.000  H
  C13      1.0000 0.12273  0.37729  0.26744  Biso   1.000  C
  C14      1.0000 0.62283  0.12178  0.73238  Biso   1.000  C
  C15      1.0000 0.87699  0.62254  0.73257  Biso   1.000  C
  C16      1.0000 0.37741  0.87794  0.26765  Biso   1.000  C
  H25      1.0000 0.99523  0.34275  0.25621  Biso   1.000  H
  H26      1.0000 0.49561  0.15635  0.74381  Biso   1.000  H
  H27      1.0000 0.00445  0.65711  0.74382  Biso   1.000  H
  H28      1.0000 0.50467  0.84337  0.25625  Biso   1.000  H
  H29      1.0000 0.21238  0.29062  0.25117  Biso   1.000  H
  H30      1.0000 0.71302  0.20822  0.74852  Biso   1.000  H
  H31      1.0000 0.78725  0.70913  0.74883  Biso   1.000  H
  H32      1.0000 0.28731  0.79144  0.25151  Biso   1.000  H
  H33      1.0000 0.14932  0.50720  0.25559  Biso   1.000  H
  H34      1.0000 0.64959  0.99179  0.74414  Biso   1.000  H
  H35      1.0000 0.85038  0.49260  0.74440  Biso   1.000  H
  H36      1.0000 0.35067  0.00791  0.25588  Biso   1.000  H
  N1       1.0000 0.90960  0.59049  0.41607  Biso   1.000  N
  N2       1.0000 0.40794  0.90941  0.58389  Biso   1.000  N
  N3       1.0000 0.09041  0.40951  0.58395  Biso   1.000  N
  N4       1.0000 0.59219  0.09055  0.41613  Biso   1.000  N
  H37      1.0000 0.93146  0.71796  0.40824  Biso   1.000  H
  H38      1.0000 0.42982  0.78191  0.59165  Biso   1.000  H
  H39      1.0000 0.06855  0.28203  0.59178  Biso   1.000  H
  H40      1.0000 0.57033  0.21807  0.40837  Biso   1.000  H
  H41      1.0000 0.92295  0.57821  0.44999  Biso   1.000  H
  H42      1.0000 0.42089  0.92198  0.54997  Biso   1.000  H
  H43      1.0000 0.07709  0.42180  0.55003  Biso   1.000  H
  H44      1.0000 0.57924  0.07801  0.45005  Biso   1.000  H
  H45      1.0000 0.78506  0.56038  0.40840  Biso   1.000  H
  H46      1.0000 0.28342  0.93936  0.59169  Biso   1.000  H
  H47      1.0000 0.21495  0.43962  0.59163  Biso   1.000  H
  H48      1.0000 0.71670  0.06057  0.40833  Biso   1.000  H
  Cl1      1.0000 0.47807  0.51080  0.59847  Biso   1.000  Cl
  Cl2      1.0000 0.97921  0.98926  0.40158  Biso   1.000  Cl
  Cl3      1.0000 0.52194  0.48917  0.40155  Biso   1.000  Cl
  Cl4      1.0000 0.02092  0.01075  0.59845  Biso   1.000  Cl
  Br1      1.0000 0.68145  0.82018  0.50204  Biso   1.000  Br
  Br2      1.0000 0.18139  0.67972  0.49821  Biso   1.000  Br
  Br3      1.0000 0.31859  0.17979  0.49799  Biso   1.000  Br
  Br4      1.0000 0.81865  0.32027  0.50181  Biso   1.000  Br
  Sn1      1.0000 0.50001  0.49999  0.50001  Biso   1.000  Sn
  Sn2      1.0000 0.00002  0.99999  0.50001  Biso   1.000  Sn
