data_image0
_cell_length_a       8.26615
_cell_length_b       8.16169
_cell_length_c       30.4141
_cell_angle_alpha    90
_cell_angle_beta     90
_cell_angle_gamma    90

_symmetry_space_group_name_H-M    "P 1"
_symmetry_int_tables_number       1

loop_
  _symmetry_equiv_pos_as_xyz
  'x, y, z'

loop_
  _atom_site_label
  _atom_site_occupancy
  _atom_site_fract_x
  _atom_site_fract_y
  _atom_site_fract_z
  _atom_site_thermal_displace_type
  _atom_site_B_iso_or_equiv
  _atom_site_type_symbol
  C1       1.0000 0.02586  0.48442  0.38665  Biso   1.000  C
  C2       1.0000 0.52536  0.01287  0.61374  Biso   1.000  C
  C3       1.0000 0.97547  0.51296  0.61397  Biso   1.000  C
  C4       1.0000 0.47547  0.98461  0.38671  Biso   1.000  C
  H1       1.0000 0.99965  0.35994  0.39746  Biso   1.000  H
  H2       1.0000 0.50006  0.13723  0.60268  Biso   1.000  H
  H3       1.0000 0.00122  0.63733  0.60300  Biso   1.000  H
  H4       1.0000 0.50102  0.86006  0.39757  Biso   1.000  H
  H5       1.0000 0.14628  0.51757  0.39818  Biso   1.000  H
  H6       1.0000 0.64539  0.97854  0.60217  Biso   1.000  H
  H7       1.0000 0.85533  0.47912  0.60238  Biso   1.000  H
  H8       1.0000 0.35535  0.01850  0.39831  Biso   1.000  H
  C5       1.0000 0.01106  0.50214  0.33703  Biso   1.000  C
  C6       1.0000 0.51087  0.99677  0.66341  Biso   1.000  C
  C7       1.0000 0.98969  0.49632  0.66362  Biso   1.000  C
  C8       1.0000 0.49019  0.00200  0.33709  Biso   1.000  C
  H9       1.0000 0.03480  0.62980  0.32782  Biso   1.000  H
  H10      1.0000 0.53454  0.86941  0.67295  Biso   1.000  H
  H11      1.0000 0.96575  0.36898  0.67310  Biso   1.000  H
  H12      1.0000 0.46639  0.12962  0.32784  Biso   1.000  H
  H13      1.0000 0.88657  0.47444  0.32701  Biso   1.000  H
  H14      1.0000 0.38645  0.02515  0.67337  Biso   1.000  H
  H15      1.0000 0.11407  0.52440  0.67369  Biso   1.000  H
  H16      1.0000 0.61478  0.97437  0.32713  Biso   1.000  H
  C9       1.0000 0.12889  0.38842  0.31292  Biso   1.000  C
  C10      1.0000 0.62889  0.11124  0.68722  Biso   1.000  C
  C11      1.0000 0.87154  0.61090  0.68736  Biso   1.000  C
  C12      1.0000 0.37257  0.88799  0.31296  Biso   1.000  C
  H17      1.0000 0.10411  0.26167  0.32260  Biso   1.000  H
  H18      1.0000 0.60428  0.23769  0.67724  Biso   1.000  H
  H19      1.0000 0.89656  0.73733  0.67743  Biso   1.000  H
  H20      1.0000 0.39755  0.76134  0.32270  Biso   1.000  H
  H21      1.0000 0.25222  0.41560  0.32375  Biso   1.000  H
  H22      1.0000 0.75219  0.08353  0.67646  Biso   1.000  H
  H23      1.0000 0.74835  0.58335  0.67648  Biso   1.000  H
  H24      1.0000 0.24911  0.91519  0.32369  Biso   1.000  H
  C13      1.0000 0.11762  0.40499  0.26296  Biso   1.000  C
  C14      1.0000 0.61772  0.09650  0.73720  Biso   1.000  C
  C15      1.0000 0.88201  0.59590  0.73735  Biso   1.000  C
  C16      1.0000 0.38430  0.90434  0.26301  Biso   1.000  C
  H25      1.0000 0.99621  0.37496  0.25119  Biso   1.000  H
  H26      1.0000 0.49634  0.12688  0.74893  Biso   1.000  H
  H27      1.0000 0.00323  0.62609  0.74923  Biso   1.000  H
  H28      1.0000 0.50585  0.87445  0.25131  Biso   1.000  H
  H29      1.0000 0.20279  0.32272  0.24661  Biso   1.000  H
  H30      1.0000 0.70300  0.17932  0.75331  Biso   1.000  H
  H31      1.0000 0.79665  0.67879  0.75340  Biso   1.000  H
  H32      1.0000 0.29927  0.82207  0.24660  Biso   1.000  H
  H33      1.0000 0.14534  0.52999  0.25242  Biso   1.000  H
  H34      1.0000 0.64534  0.97187  0.74807  Biso   1.000  H
  H35      1.0000 0.85406  0.47125  0.74813  Biso   1.000  H
  H36      1.0000 0.35668  0.02936  0.25244  Biso   1.000  H
  N1       1.0000 0.90867  0.59498  0.40969  Biso   1.000  N
  N2       1.0000 0.40701  0.90252  0.59100  Biso   1.000  N
  N3       1.0000 0.09334  0.40243  0.59114  Biso   1.000  N
  N4       1.0000 0.59355  0.09456  0.40967  Biso   1.000  N
  H37      1.0000 0.93050  0.71712  0.40255  Biso   1.000  H
  H38      1.0000 0.42858  0.78039  0.59825  Biso   1.000  H
  H39      1.0000 0.07156  0.28030  0.59833  Biso   1.000  H
  H40      1.0000 0.57223  0.21679  0.40251  Biso   1.000  H
  H41      1.0000 0.91950  0.58174  0.44304  Biso   1.000  H
  H42      1.0000 0.41723  0.91526  0.55761  Biso   1.000  H
  H43      1.0000 0.08302  0.41542  0.55776  Biso   1.000  H
  H44      1.0000 0.58296  0.08121  0.44304  Biso   1.000  H
  H45      1.0000 0.78979  0.56758  0.40180  Biso   1.000  H
  H46      1.0000 0.28846  0.93063  0.59905  Biso   1.000  H
  H47      1.0000 0.21201  0.43014  0.59914  Biso   1.000  H
  H48      1.0000 0.71214  0.06655  0.40163  Biso   1.000  H
  Br1      1.0000 0.48517  0.50312  0.60343  Biso   1.000  Br
  Br2      1.0000 0.98559  0.99523  0.39717  Biso   1.000  Br
  Br3      1.0000 0.51652  0.49525  0.39733  Biso   1.000  Br
  Br4      1.0000 0.01534  0.00288  0.60340  Biso   1.000  Br
  I1       1.0000 0.67609  0.82648  0.50112  Biso   1.000  I
  I2       1.0000 0.17652  0.67427  0.49981  Biso   1.000  I
  I3       1.0000 0.32477  0.17402  0.49966  Biso   1.000  I
  I4       1.0000 0.82531  0.32679  0.50125  Biso   1.000  I
  Sn1      1.0000 0.50061  0.49992  0.50031  Biso   1.000  Sn
  Sn2      1.0000 0.00038  0.00010  0.50030  Biso   1.000  Sn
