data_image0
_cell_length_a       4.18472
_cell_length_b       4.18713
_cell_length_c       18.8558
_cell_angle_alpha    90
_cell_angle_beta     90
_cell_angle_gamma    119.981

_symmetry_space_group_name_H-M    "P 1"
_symmetry_int_tables_number       1

loop_
  _symmetry_equiv_pos_as_xyz
  'x, y, z'

loop_
  _atom_site_label
  _atom_site_occupancy
  _atom_site_fract_x
  _atom_site_fract_y
  _atom_site_fract_z
  _atom_site_thermal_displace_type
  _atom_site_B_iso_or_equiv
  _atom_site_type_symbol
  Br1      1.0000 0.99982  0.00031  0.34922  Biso   1.000  Br
  Br2      1.0000 0.33352  0.66635  0.65082  Biso   1.000  Br
  Sn1      1.0000 0.99992  0.00006  0.55743  Biso   1.000  Sn
  Sn2      1.0000 0.33341  0.66662  0.44266  Biso   1.000  Sn
