data_image0
_cell_length_a       7.95905
_cell_length_b       7.90813
_cell_length_c       30.1027
_cell_angle_alpha    90
_cell_angle_beta     90
_cell_angle_gamma    90

_symmetry_space_group_name_H-M    "P 1"
_symmetry_int_tables_number       1

loop_
  _symmetry_equiv_pos_as_xyz
  'x, y, z'

loop_
  _atom_site_label
  _atom_site_occupancy
  _atom_site_fract_x
  _atom_site_fract_y
  _atom_site_fract_z
  _atom_site_thermal_displace_type
  _atom_site_B_iso_or_equiv
  _atom_site_type_symbol
  C1       1.0000 0.03746  0.47035  0.39213  Biso   1.000  C
  C2       1.0000 0.53870  0.02913  0.60792  Biso   1.000  C
  C3       1.0000 0.96265  0.53031  0.60792  Biso   1.000  C
  C4       1.0000 0.46120  0.97118  0.39210  Biso   1.000  C
  H1       1.0000 0.01437  0.34181  0.40351  Biso   1.000  H
  H2       1.0000 0.51525  0.15754  0.59648  Biso   1.000  H
  H3       1.0000 0.98556  0.65891  0.59656  Biso   1.000  H
  H4       1.0000 0.48473  0.84271  0.40347  Biso   1.000  H
  H5       1.0000 0.16314  0.50752  0.40246  Biso   1.000  H
  H6       1.0000 0.66458  0.99242  0.59764  Biso   1.000  H
  H7       1.0000 0.83696  0.49311  0.59761  Biso   1.000  H
  H8       1.0000 0.33530  0.00776  0.40239  Biso   1.000  H
  C5       1.0000 0.01423  0.48674  0.34213  Biso   1.000  C
  C6       1.0000 0.51530  0.01313  0.65791  Biso   1.000  C
  C7       1.0000 0.98584  0.51386  0.65791  Biso   1.000  C
  C8       1.0000 0.48458  0.98749  0.34210  Biso   1.000  C
  H9       1.0000 0.03480  0.61858  0.33229  Biso   1.000  H
  H10      1.0000 0.53607  0.88142  0.66784  Biso   1.000  H
  H11      1.0000 0.96521  0.38203  0.66775  Biso   1.000  H
  H12      1.0000 0.46385  0.11926  0.33224  Biso   1.000  H
  H13      1.0000 0.88423  0.45511  0.33340  Biso   1.000  H
  H14      1.0000 0.38519  0.04460  0.66657  Biso   1.000  H
  H15      1.0000 0.11583  0.54548  0.66666  Biso   1.000  H
  H16      1.0000 0.61468  0.95605  0.33343  Biso   1.000  H
  C9       1.0000 0.13516  0.37091  0.31675  Biso   1.000  C
  C10      1.0000 0.63579  0.12937  0.68329  Biso   1.000  C
  C11      1.0000 0.86488  0.62966  0.68330  Biso   1.000  C
  C12      1.0000 0.36411  0.87129  0.31669  Biso   1.000  C
  H17      1.0000 0.11240  0.24003  0.32686  Biso   1.000  H
  H18      1.0000 0.61268  0.26013  0.67314  Biso   1.000  H
  H19      1.0000 0.88766  0.76058  0.67324  Biso   1.000  H
  H20      1.0000 0.38714  0.74053  0.32686  Biso   1.000  H
  H21      1.0000 0.26417  0.40098  0.32643  Biso   1.000  H
  H22      1.0000 0.76493  0.09965  0.67365  Biso   1.000  H
  H23      1.0000 0.73589  0.59966  0.67358  Biso   1.000  H
  H24      1.0000 0.23493  0.90109  0.32630  Biso   1.000  H
  C13      1.0000 0.11652  0.38680  0.26642  Biso   1.000  C
  C14      1.0000 0.61687  0.11359  0.73362  Biso   1.000  C
  C15      1.0000 0.88338  0.61356  0.73363  Biso   1.000  C
  C16      1.0000 0.38316  0.88696  0.26637  Biso   1.000  C
  H25      1.0000 0.98940  0.35378  0.25571  Biso   1.000  H
  H26      1.0000 0.48964  0.14650  0.74426  Biso   1.000  H
  H27      1.0000 0.01049  0.64652  0.74436  Biso   1.000  H
  H28      1.0000 0.51041  0.85411  0.25574  Biso   1.000  H
  H29      1.0000 0.20396  0.30284  0.24921  Biso   1.000  H
  H30      1.0000 0.70407  0.19774  0.75084  Biso   1.000  H
  H31      1.0000 0.79592  0.69748  0.75085  Biso   1.000  H
  H32      1.0000 0.29599  0.80279  0.24915  Biso   1.000  H
  H33      1.0000 0.14214  0.51591  0.25534  Biso   1.000  H
  H34      1.0000 0.64255  0.98453  0.74473  Biso   1.000  H
  H35      1.0000 0.85772  0.48439  0.74466  Biso   1.000  H
  H36      1.0000 0.35745  0.01594  0.25522  Biso   1.000  H
  N1       1.0000 0.91706  0.58204  0.41648  Biso   1.000  N
  N2       1.0000 0.41871  0.91687  0.58360  Biso   1.000  N
  N3       1.0000 0.08308  0.41862  0.58357  Biso   1.000  N
  N4       1.0000 0.58119  0.08334  0.41646  Biso   1.000  N
  H37      1.0000 0.93711  0.70827  0.40911  Biso   1.000  H
  H38      1.0000 0.43895  0.79072  0.59107  Biso   1.000  H
  H39      1.0000 0.06310  0.29237  0.59094  Biso   1.000  H
  H40      1.0000 0.56102  0.20950  0.40900  Biso   1.000  H
  H41      1.0000 0.93097  0.56789  0.45002  Biso   1.000  H
  H42      1.0000 0.43309  0.93055  0.55005  Biso   1.000  H
  H43      1.0000 0.06921  0.43289  0.55003  Biso   1.000  H
  H44      1.0000 0.56672  0.06955  0.45000  Biso   1.000  H
  H45      1.0000 0.79354  0.55325  0.40877  Biso   1.000  H
  H46      1.0000 0.29514  0.94583  0.59119  Biso   1.000  H
  H47      1.0000 0.20658  0.44758  0.59128  Biso   1.000  H
  H48      1.0000 0.70476  0.05434  0.40886  Biso   1.000  H
  Br1      1.0000 0.48039  0.50989  0.60212  Biso   1.000  Br
  Br2      1.0000 0.97817  0.98980  0.39782  Biso   1.000  Br
  Br3      1.0000 0.51978  0.49041  0.39789  Biso   1.000  Br
  Br4      1.0000 0.02179  0.01113  0.60218  Biso   1.000  Br
  Br5      1.0000 0.68598  0.81529  0.50177  Biso   1.000  Br
  Br6      1.0000 0.18627  0.68542  0.49787  Biso   1.000  Br
  Br7      1.0000 0.31402  0.18507  0.49824  Biso   1.000  Br
  Br8      1.0000 0.81391  0.31509  0.50211  Biso   1.000  Br
  Sn1      1.0000 0.50003  0.50012  0.49999  Biso   1.000  Sn
  Sn2      1.0000 0.99999  0.00023  0.50001  Biso   1.000  Sn
