data_image0
_cell_length_a       8.05927
_cell_length_b       7.86244
_cell_length_c       30.5908
_cell_angle_alpha    90
_cell_angle_beta     90
_cell_angle_gamma    90

_symmetry_space_group_name_H-M    "P 1"
_symmetry_int_tables_number       1

loop_
  _symmetry_equiv_pos_as_xyz
  'x, y, z'

loop_
  _atom_site_label
  _atom_site_occupancy
  _atom_site_fract_x
  _atom_site_fract_y
  _atom_site_fract_z
  _atom_site_thermal_displace_type
  _atom_site_B_iso_or_equiv
  _atom_site_type_symbol
  C1       1.0000 0.07448  0.47404  0.39085  Biso   1.000  C
  C2       1.0000 0.57284  0.03207  0.60677  Biso   1.000  C
  C3       1.0000 0.92709  0.53468  0.60701  Biso   1.000  C
  C4       1.0000 0.42437  0.97216  0.39069  Biso   1.000  C
  H1       1.0000 0.07927  0.34412  0.40309  Biso   1.000  H
  H2       1.0000 0.57418  0.16450  0.59646  Biso   1.000  H
  H3       1.0000 0.92694  0.66736  0.59686  Biso   1.000  H
  H4       1.0000 0.41954  0.84215  0.40287  Biso   1.000  H
  H5       1.0000 0.19522  0.53245  0.39578  Biso   1.000  H
  H6       1.0000 0.69540  0.97843  0.60140  Biso   1.000  H
  H7       1.0000 0.80421  0.48212  0.60142  Biso   1.000  H
  H8       1.0000 0.30358  0.03049  0.39562  Biso   1.000  H
  C5       1.0000 0.02189  0.48008  0.34299  Biso   1.000  C
  C6       1.0000 0.51863  0.01369  0.65428  Biso   1.000  C
  C7       1.0000 0.98041  0.51519  0.65455  Biso   1.000  C
  C8       1.0000 0.47705  0.97864  0.34284  Biso   1.000  C
  H9       1.0000 0.01796  0.61280  0.33209  Biso   1.000  H
  H10      1.0000 0.51973  0.87897  0.66340  Biso   1.000  H
  H11      1.0000 0.97871  0.38031  0.66347  Biso   1.000  H
  H12      1.0000 0.48076  0.11145  0.33203  Biso   1.000  H
  H13      1.0000 0.89609  0.42937  0.33965  Biso   1.000  H
  H14      1.0000 0.39085  0.05842  0.65795  Biso   1.000  H
  H15      1.0000 0.10841  0.55927  0.65838  Biso   1.000  H
  H16      1.0000 0.60289  0.92811  0.33948  Biso   1.000  H
  C9       1.0000 0.14036  0.37813  0.31375  Biso   1.000  C
  C10      1.0000 0.63186  0.11446  0.68520  Biso   1.000  C
  C11      1.0000 0.86742  0.61577  0.68551  Biso   1.000  C
  C12      1.0000 0.35875  0.87685  0.31350  Biso   1.000  C
  H17      1.0000 0.14005  0.24539  0.32442  Biso   1.000  H
  H18      1.0000 0.62587  0.24933  0.67651  Biso   1.000  H
  H19      1.0000 0.87376  0.75076  0.67695  Biso   1.000  H
  H20      1.0000 0.35938  0.74392  0.32402  Biso   1.000  H
  H21      1.0000 0.26718  0.42456  0.31808  Biso   1.000  H
  H22      1.0000 0.76074  0.07495  0.68050  Biso   1.000  H
  H23      1.0000 0.73843  0.57665  0.68078  Biso   1.000  H
  H24      1.0000 0.23182  0.92288  0.31784  Biso   1.000  H
  C13      1.0000 0.09294  0.38718  0.26542  Biso   1.000  C
  C14      1.0000 0.58362  0.09210  0.73320  Biso   1.000  C
  C15      1.0000 0.91588  0.59228  0.73347  Biso   1.000  C
  C16      1.0000 0.40649  0.88680  0.26520  Biso   1.000  C
  H25      1.0000 0.96701  0.33977  0.26000  Biso   1.000  H
  H26      1.0000 0.45572  0.13263  0.73903  Biso   1.000  H
  H27      1.0000 0.04396  0.63229  0.73927  Biso   1.000  H
  H28      1.0000 0.53245  0.83952  0.25977  Biso   1.000  H
  H29      1.0000 0.17736  0.31058  0.24555  Biso   1.000  H
  H30      1.0000 0.66431  0.16740  0.75441  Biso   1.000  H
  H31      1.0000 0.83557  0.66734  0.75483  Biso   1.000  H
  H32      1.0000 0.32222  0.81064  0.24517  Biso   1.000  H
  H33      1.0000 0.09824  0.51798  0.25330  Biso   1.000  H
  H34      1.0000 0.59397  0.95903  0.74329  Biso   1.000  H
  H35      1.0000 0.90521  0.45900  0.74334  Biso   1.000  H
  H36      1.0000 0.40130  0.01786  0.25326  Biso   1.000  H
  N1       1.0000 0.95586  0.56813  0.41979  Biso   1.000  N
  N2       1.0000 0.45833  0.94089  0.57607  Biso   1.000  N
  N3       1.0000 0.04165  0.44331  0.57638  Biso   1.000  N
  N4       1.0000 0.54289  0.06630  0.41970  Biso   1.000  N
  H37      1.0000 0.94584  0.69409  0.41011  Biso   1.000  H
  H38      1.0000 0.45328  0.81258  0.58356  Biso   1.000  H
  H39      1.0000 0.04582  0.31484  0.58388  Biso   1.000  H
  H40      1.0000 0.55221  0.19238  0.41016  Biso   1.000  H
  H41      1.0000 0.99685  0.56971  0.45143  Biso   1.000  H
  H42      1.0000 0.49987  0.95071  0.54459  Biso   1.000  H
  H43      1.0000 0.00116  0.45336  0.54486  Biso   1.000  H
  H44      1.0000 0.50206  0.06713  0.45135  Biso   1.000  H
  H45      1.0000 0.83816  0.51725  0.41861  Biso   1.000  H
  H46      1.0000 0.33867  0.98662  0.57796  Biso   1.000  H
  H47      1.0000 0.16160  0.48811  0.57858  Biso   1.000  H
  H48      1.0000 0.66081  0.01590  0.41846  Biso   1.000  H
  I1       1.0000 0.45515  0.51187  0.60555  Biso   1.000  I
  I2       1.0000 0.95423  0.99718  0.39144  Biso   1.000  I
  I3       1.0000 0.54517  0.49604  0.39171  Biso   1.000  I
  I4       1.0000 0.04537  0.01368  0.60523  Biso   1.000  I
  Cl1      1.0000 0.71878  0.81336  0.50028  Biso   1.000  Cl
  Cl2      1.0000 0.19436  0.72085  0.49750  Biso   1.000  Cl
  Cl3      1.0000 0.30595  0.22142  0.49744  Biso   1.000  Cl
  Cl4      1.0000 0.78120  0.31126  0.50119  Biso   1.000  Cl
  Sn1      1.0000 0.50122  0.50328  0.49867  Biso   1.000  Sn
  Sn2      1.0000 0.99823  0.00446  0.49854  Biso   1.000  Sn
