data_image0
_cell_length_a       7.88821
_cell_length_b       7.75807
_cell_length_c       29.6731
_cell_angle_alpha    90
_cell_angle_beta     90
_cell_angle_gamma    90

_symmetry_space_group_name_H-M    "P 1"
_symmetry_int_tables_number       1

loop_
  _symmetry_equiv_pos_as_xyz
  'x, y, z'

loop_
  _atom_site_label
  _atom_site_occupancy
  _atom_site_fract_x
  _atom_site_fract_y
  _atom_site_fract_z
  _atom_site_thermal_displace_type
  _atom_site_B_iso_or_equiv
  _atom_site_type_symbol
  C1       1.0000 0.03575  0.46589  0.39888  Biso   1.000  C
  C2       1.0000 0.53590  0.02829  0.60553  Biso   1.000  C
  C3       1.0000 0.96120  0.52799  0.60556  Biso   1.000  C
  C4       1.0000 0.46019  0.96668  0.39890  Biso   1.000  C
  H1       1.0000 0.01379  0.33368  0.40969  Biso   1.000  H
  H2       1.0000 0.51184  0.15766  0.59287  Biso   1.000  H
  H3       1.0000 0.98463  0.65730  0.59277  Biso   1.000  H
  H4       1.0000 0.48192  0.83461  0.40986  Biso   1.000  H
  H5       1.0000 0.16264  0.50393  0.40928  Biso   1.000  H
  H6       1.0000 0.66153  0.98821  0.59456  Biso   1.000  H
  H7       1.0000 0.83540  0.48756  0.59483  Biso   1.000  H
  H8       1.0000 0.33296  0.00467  0.40898  Biso   1.000  H
  C5       1.0000 0.01091  0.48669  0.34834  Biso   1.000  C
  C6       1.0000 0.51781  0.02001  0.65654  Biso   1.000  C
  C7       1.0000 0.98069  0.52021  0.65653  Biso   1.000  C
  C8       1.0000 0.48689  0.98703  0.34842  Biso   1.000  C
  H9       1.0000 0.03113  0.62182  0.33900  Biso   1.000  H
  H10      1.0000 0.53800  0.88709  0.66780  Biso   1.000  H
  H11      1.0000 0.96106  0.38737  0.66793  Biso   1.000  H
  H12      1.0000 0.46690  0.12210  0.33898  Biso   1.000  H
  H13      1.0000 0.87957  0.45482  0.33952  Biso   1.000  H
  H14      1.0000 0.38800  0.05531  0.66600  Biso   1.000  H
  H15      1.0000 0.11065  0.55591  0.66575  Biso   1.000  H
  H16      1.0000 0.61856  0.95517  0.33997  Biso   1.000  H
  C9       1.0000 0.13277  0.37064  0.32197  Biso   1.000  C
  C10      1.0000 0.64406  0.14049  0.67991  Biso   1.000  C
  C11      1.0000 0.85474  0.64060  0.68007  Biso   1.000  C
  C12      1.0000 0.36584  0.87072  0.32187  Biso   1.000  C
  H17      1.0000 0.11016  0.23649  0.33172  Biso   1.000  H
  H18      1.0000 0.62101  0.27228  0.66838  Biso   1.000  H
  H19      1.0000 0.87750  0.77235  0.66847  Biso   1.000  H
  H20      1.0000 0.38835  0.73668  0.33173  Biso   1.000  H
  H21      1.0000 0.26303  0.40103  0.33187  Biso   1.000  H
  H22      1.0000 0.77250  0.10661  0.66927  Biso   1.000  H
  H23      1.0000 0.72608  0.60658  0.66963  Biso   1.000  H
  H24      1.0000 0.23528  0.90105  0.33152  Biso   1.000  H
  C13      1.0000 0.11284  0.39026  0.27101  Biso   1.000  C
  C14      1.0000 0.63142  0.13261  0.73125  Biso   1.000  C
  C15      1.0000 0.86842  0.63288  0.73138  Biso   1.000  C
  C16      1.0000 0.38717  0.89017  0.27096  Biso   1.000  C
  H25      1.0000 0.98419  0.35731  0.26032  Biso   1.000  H
  H26      1.0000 0.50510  0.17028  0.74280  Biso   1.000  H
  H27      1.0000 0.99493  0.67067  0.74275  Biso   1.000  H
  H28      1.0000 0.51618  0.85746  0.26053  Biso   1.000  H
  H29      1.0000 0.20066  0.30609  0.25296  Biso   1.000  H
  H30      1.0000 0.72316  0.21909  0.74699  Biso   1.000  H
  H31      1.0000 0.77701  0.71937  0.74725  Biso   1.000  H
  H32      1.0000 0.30008  0.80573  0.25275  Biso   1.000  H
  H33      1.0000 0.13808  0.52278  0.26042  Biso   1.000  H
  H34      1.0000 0.65644  0.00252  0.74366  Biso   1.000  H
  H35      1.0000 0.84370  0.50283  0.74387  Biso   1.000  H
  H36      1.0000 0.36199  0.02262  0.26029  Biso   1.000  H
  N1       1.0000 0.91384  0.57707  0.42437  Biso   1.000  N
  N2       1.0000 0.41114  0.91102  0.58307  Biso   1.000  N
  N3       1.0000 0.08567  0.41072  0.58304  Biso   1.000  N
  N4       1.0000 0.58100  0.07824  0.42461  Biso   1.000  N
  H37      1.0000 0.93258  0.70625  0.41713  Biso   1.000  H
  H38      1.0000 0.43139  0.78349  0.59183  Biso   1.000  H
  H39      1.0000 0.06577  0.28318  0.59190  Biso   1.000  H
  H40      1.0000 0.56283  0.20734  0.41722  Biso   1.000  H
  H41      1.0000 0.93016  0.56139  0.45823  Biso   1.000  H
  H42      1.0000 0.42155  0.91917  0.54886  Biso   1.000  H
  H43      1.0000 0.07467  0.41836  0.54885  Biso   1.000  H
  H44      1.0000 0.56378  0.06288  0.45844  Biso   1.000  H
  H45      1.0000 0.78927  0.54624  0.41689  Biso   1.000  H
  H46      1.0000 0.28761  0.94324  0.59144  Biso   1.000  H
  H47      1.0000 0.20920  0.44345  0.59122  Biso   1.000  H
  H48      1.0000 0.70574  0.04710  0.41743  Biso   1.000  H
  Cl1      1.0000 0.46909  0.51101  0.60144  Biso   1.000  Cl
  Cl2      1.0000 0.96900  0.97983  0.40628  Biso   1.000  Cl
  Cl3      1.0000 0.52599  0.48057  0.40631  Biso   1.000  Cl
  Cl4      1.0000 0.02808  0.01078  0.60154  Biso   1.000  Cl
  Cl5      1.0000 0.68118  0.78926  0.50471  Biso   1.000  Cl
  Cl6      1.0000 0.20416  0.67777  0.49997  Biso   1.000  Cl
  Cl7      1.0000 0.28978  0.17819  0.50005  Biso   1.000  Cl
  Cl8      1.0000 0.81423  0.28919  0.50501  Biso   1.000  Cl
  Sn1      1.0000 0.49758  0.49228  0.50362  Biso   1.000  Sn
  Sn2      1.0000 0.99860  0.99154  0.50355  Biso   1.000  Sn
