data_image0
_cell_length_a       8.25515
_cell_length_b       8.13708
_cell_length_c       30.0512
_cell_angle_alpha    90
_cell_angle_beta     90
_cell_angle_gamma    90

_symmetry_space_group_name_H-M    "P 1"
_symmetry_int_tables_number       1

loop_
  _symmetry_equiv_pos_as_xyz
  'x, y, z'

loop_
  _atom_site_label
  _atom_site_occupancy
  _atom_site_fract_x
  _atom_site_fract_y
  _atom_site_fract_z
  _atom_site_thermal_displace_type
  _atom_site_B_iso_or_equiv
  _atom_site_type_symbol
  C1       1.0000 0.01470  0.48892  0.38862  Biso   1.000  C
  C2       1.0000 0.51461  0.01087  0.61156  Biso   1.000  C
  C3       1.0000 0.98518  0.51104  0.61155  Biso   1.000  C
  C4       1.0000 0.48550  0.98879  0.38862  Biso   1.000  C
  H1       1.0000 0.98949  0.36473  0.40034  Biso   1.000  H
  H2       1.0000 0.48935  0.13502  0.59980  Biso   1.000  H
  H3       1.0000 0.01070  0.63510  0.59977  Biso   1.000  H
  H4       1.0000 0.51085  0.86461  0.40033  Biso   1.000  H
  H5       1.0000 0.13539  0.52347  0.39997  Biso   1.000  H
  H6       1.0000 0.63524  0.97624  0.60018  Biso   1.000  H
  H7       1.0000 0.86452  0.47661  0.60015  Biso   1.000  H
  H8       1.0000 0.36478  0.02321  0.39998  Biso   1.000  H
  C5       1.0000 0.00042  0.50152  0.33836  Biso   1.000  C
  C6       1.0000 0.50037  0.99843  0.66182  Biso   1.000  C
  C7       1.0000 0.99924  0.49871  0.66181  Biso   1.000  C
  C8       1.0000 0.49970  0.00144  0.33835  Biso   1.000  C
  H9       1.0000 0.02463  0.62842  0.32796  Biso   1.000  H
  H10      1.0000 0.52439  0.87152  0.67223  Biso   1.000  H
  H11      1.0000 0.97522  0.37178  0.67222  Biso   1.000  H
  H12      1.0000 0.47567  0.12839  0.32797  Biso   1.000  H
  H13      1.0000 0.87608  0.47243  0.32815  Biso   1.000  H
  H14      1.0000 0.37608  0.02776  0.67204  Biso   1.000  H
  H15      1.0000 0.12347  0.52806  0.67206  Biso   1.000  H
  H16      1.0000 0.62396  0.97215  0.32810  Biso   1.000  H
  C9       1.0000 0.11978  0.38411  0.31565  Biso   1.000  C
  C10      1.0000 0.61997  0.11572  0.68445  Biso   1.000  C
  C11      1.0000 0.87947  0.61592  0.68440  Biso   1.000  C
  C12      1.0000 0.38002  0.88428  0.31567  Biso   1.000  C
  H17      1.0000 0.09467  0.25853  0.32686  Biso   1.000  H
  H18      1.0000 0.59503  0.24127  0.67318  Biso   1.000  H
  H19      1.0000 0.90434  0.74152  0.67318  Biso   1.000  H
  H20      1.0000 0.40498  0.75864  0.32685  Biso   1.000  H
  H21      1.0000 0.24274  0.41348  0.32683  Biso   1.000  H
  H22      1.0000 0.74283  0.08611  0.67323  Biso   1.000  H
  H23      1.0000 0.75667  0.58622  0.67315  Biso   1.000  H
  H24      1.0000 0.25718  0.91382  0.32693  Biso   1.000  H
  C13      1.0000 0.11064  0.39301  0.26496  Biso   1.000  C
  C14      1.0000 0.61108  0.10726  0.73514  Biso   1.000  C
  C15      1.0000 0.88818  0.60721  0.73510  Biso   1.000  C
  C16      1.0000 0.38870  0.89329  0.26497  Biso   1.000  C
  H25      1.0000 0.98928  0.36177  0.25309  Biso   1.000  H
  H26      1.0000 0.48978  0.13865  0.74704  Biso   1.000  H
  H27      1.0000 0.00940  0.63869  0.74704  Biso   1.000  H
  H28      1.0000 0.50993  0.86203  0.25301  Biso   1.000  H
  H29      1.0000 0.19613  0.30774  0.24957  Biso   1.000  H
  H30      1.0000 0.69667  0.19266  0.75043  Biso   1.000  H
  H31      1.0000 0.80242  0.69239  0.75041  Biso   1.000  H
  H32      1.0000 0.30300  0.80810  0.24965  Biso   1.000  H
  H33      1.0000 0.13923  0.51669  0.25306  Biso   1.000  H
  H34      1.0000 0.63972  0.98370  0.74712  Biso   1.000  H
  H35      1.0000 0.85966  0.48353  0.74702  Biso   1.000  H
  H36      1.0000 0.36001  0.01701  0.25312  Biso   1.000  H
  N1       1.0000 0.89714  0.60075  0.41153  Biso   1.000  N
  N2       1.0000 0.39688  0.89904  0.58875  Biso   1.000  N
  N3       1.0000 0.10271  0.39888  0.58877  Biso   1.000  N
  N4       1.0000 0.60298  0.10069  0.41154  Biso   1.000  N
  H37      1.0000 0.91808  0.72317  0.40395  Biso   1.000  H
  H38      1.0000 0.41807  0.77659  0.59622  Biso   1.000  H
  H39      1.0000 0.08218  0.27663  0.59659  Biso   1.000  H
  H40      1.0000 0.58245  0.22303  0.40380  Biso   1.000  H
  H41      1.0000 0.91002  0.58945  0.44530  Biso   1.000  H
  H42      1.0000 0.40917  0.91066  0.55497  Biso   1.000  H
  H43      1.0000 0.08921  0.40915  0.55498  Biso   1.000  H
  H44      1.0000 0.58948  0.08996  0.44530  Biso   1.000  H
  H45      1.0000 0.77794  0.57077  0.40420  Biso   1.000  H
  H46      1.0000 0.27771  0.92879  0.59619  Biso   1.000  H
  H47      1.0000 0.22198  0.42934  0.59587  Biso   1.000  H
  H48      1.0000 0.72223  0.07033  0.40439  Biso   1.000  H
  Cl1      1.0000 0.47479  0.51015  0.59915  Biso   1.000  Cl
  Cl2      1.0000 0.97532  0.98940  0.40116  Biso   1.000  Cl
  Cl3      1.0000 0.52529  0.48943  0.40071  Biso   1.000  Cl
  Cl4      1.0000 0.02504  0.00994  0.59955  Biso   1.000  Cl
  I1       1.0000 0.67613  0.82558  0.50359  Biso   1.000  I
  I2       1.0000 0.17629  0.67320  0.49685  Biso   1.000  I
  I3       1.0000 0.32289  0.17302  0.49676  Biso   1.000  I
  I4       1.0000 0.82314  0.32587  0.50350  Biso   1.000  I
  Sn1      1.0000 0.49963  0.49958  0.49995  Biso   1.000  Sn
  Sn2      1.0000 0.99955  0.99953  0.50036  Biso   1.000  Sn
