data_image0
_cell_length_a       8.33885
_cell_length_b       8.29681
_cell_length_c       31.1104
_cell_angle_alpha    90
_cell_angle_beta     90
_cell_angle_gamma    90

_symmetry_space_group_name_H-M    "P 1"
_symmetry_int_tables_number       1

loop_
  _symmetry_equiv_pos_as_xyz
  'x, y, z'

loop_
  _atom_site_label
  _atom_site_occupancy
  _atom_site_fract_x
  _atom_site_fract_y
  _atom_site_fract_z
  _atom_site_thermal_displace_type
  _atom_site_B_iso_or_equiv
  _atom_site_type_symbol
  C1       1.0000 0.02300  0.48665  0.38363  Biso   1.000  C
  C2       1.0000 0.52306  0.01354  0.61633  Biso   1.000  C
  C3       1.0000 0.97683  0.51368  0.61630  Biso   1.000  C
  C4       1.0000 0.47675  0.98649  0.38366  Biso   1.000  C
  H1       1.0000 0.99936  0.36165  0.39231  Biso   1.000  H
  H2       1.0000 0.49947  0.13861  0.60771  Biso   1.000  H
  H3       1.0000 0.00042  0.63874  0.60768  Biso   1.000  H
  H4       1.0000 0.50029  0.86146  0.39233  Biso   1.000  H
  H5       1.0000 0.14518  0.51615  0.39319  Biso   1.000  H
  H6       1.0000 0.64524  0.98407  0.60676  Biso   1.000  H
  H7       1.0000 0.85465  0.48419  0.60673  Biso   1.000  H
  H8       1.0000 0.35459  0.01608  0.39322  Biso   1.000  H
  C5       1.0000 0.99533  0.51675  0.33595  Biso   1.000  C
  C6       1.0000 0.49539  0.98315  0.66399  Biso   1.000  C
  C7       1.0000 0.00439  0.48334  0.66397  Biso   1.000  C
  C8       1.0000 0.50436  0.01651  0.33598  Biso   1.000  C
  H9       1.0000 0.01707  0.64426  0.32873  Biso   1.000  H
  H10      1.0000 0.51738  0.85564  0.67116  Biso   1.000  H
  H11      1.0000 0.98250  0.35582  0.67115  Biso   1.000  H
  H12      1.0000 0.48275  0.14405  0.32875  Biso   1.000  H
  H13      1.0000 0.86955  0.49190  0.32801  Biso   1.000  H
  H14      1.0000 0.36956  0.00770  0.67193  Biso   1.000  H
  H15      1.0000 0.13020  0.50799  0.67194  Biso   1.000  H
  H16      1.0000 0.63011  0.99153  0.32802  Biso   1.000  H
  C9       1.0000 0.10508  0.41125  0.30819  Biso   1.000  C
  C10      1.0000 0.60498  0.08869  0.69179  Biso   1.000  C
  C11      1.0000 0.89462  0.58884  0.69173  Biso   1.000  C
  C12      1.0000 0.39442  0.91110  0.30824  Biso   1.000  C
  H17      1.0000 0.08337  0.28420  0.31579  Biso   1.000  H
  H18      1.0000 0.58304  0.21574  0.68425  Biso   1.000  H
  H19      1.0000 0.91657  0.71587  0.68417  Biso   1.000  H
  H20      1.0000 0.41597  0.78407  0.31588  Biso   1.000  H
  H21      1.0000 0.23011  0.43572  0.31669  Biso   1.000  H
  H22      1.0000 0.73005  0.06449  0.68326  Biso   1.000  H
  H23      1.0000 0.76962  0.56460  0.68314  Biso   1.000  H
  H24      1.0000 0.26946  0.93578  0.31677  Biso   1.000  H
  C13      1.0000 0.08030  0.43982  0.26012  Biso   1.000  C
  C14      1.0000 0.58029  0.05974  0.73985  Biso   1.000  C
  C15      1.0000 0.91896  0.56004  0.73981  Biso   1.000  C
  C16      1.0000 0.41912  0.93943  0.26015  Biso   1.000  C
  H25      1.0000 0.95689  0.41319  0.25058  Biso   1.000  H
  H26      1.0000 0.45679  0.08594  0.74939  Biso   1.000  H
  H27      1.0000 0.04241  0.58625  0.74941  Biso   1.000  H
  H28      1.0000 0.54247  0.91257  0.25060  Biso   1.000  H
  H29      1.0000 0.15982  0.36330  0.24108  Biso   1.000  H
  H30      1.0000 0.65958  0.13638  0.75892  Biso   1.000  H
  H31      1.0000 0.83955  0.63683  0.75881  Biso   1.000  H
  H32      1.0000 0.33940  0.86286  0.24118  Biso   1.000  H
  H33      1.0000 0.10518  0.56530  0.25159  Biso   1.000  H
  H34      1.0000 0.60553  0.93429  0.74832  Biso   1.000  H
  H35      1.0000 0.89358  0.43464  0.74831  Biso   1.000  H
  H36      1.0000 0.39432  0.06488  0.25159  Biso   1.000  H
  N1       1.0000 0.91412  0.58847  0.41066  Biso   1.000  N
  N2       1.0000 0.41417  0.91189  0.58925  Biso   1.000  N
  N3       1.0000 0.08575  0.41199  0.58924  Biso   1.000  N
  N4       1.0000 0.58573  0.08825  0.41068  Biso   1.000  N
  H37      1.0000 0.93503  0.70994  0.40555  Biso   1.000  H
  H38      1.0000 0.43512  0.79038  0.59427  Biso   1.000  H
  H39      1.0000 0.06472  0.29050  0.59426  Biso   1.000  H
  H40      1.0000 0.56479  0.20972  0.40559  Biso   1.000  H
  H41      1.0000 0.93239  0.56540  0.44266  Biso   1.000  H
  H42      1.0000 0.43249  0.93526  0.55728  Biso   1.000  H
  H43      1.0000 0.06749  0.43537  0.55727  Biso   1.000  H
  H44      1.0000 0.56745  0.06512  0.44267  Biso   1.000  H
  H45      1.0000 0.79461  0.56528  0.40411  Biso   1.000  H
  H46      1.0000 0.29462  0.93507  0.59579  Biso   1.000  H
  H47      1.0000 0.20530  0.43514  0.59579  Biso   1.000  H
  H48      1.0000 0.70524  0.06506  0.40413  Biso   1.000  H
  I1       1.0000 0.49594  0.49899  0.60699  Biso   1.000  I
  I2       1.0000 0.99590  0.00129  0.39265  Biso   1.000  I
  I3       1.0000 0.50381  0.50104  0.39264  Biso   1.000  I
  I4       1.0000 0.00385  0.99919  0.60700  Biso   1.000  I
  I5       1.0000 0.67629  0.82461  0.50001  Biso   1.000  I
  I6       1.0000 0.17612  0.67581  0.49990  Biso   1.000  I
  I7       1.0000 0.32354  0.17562  0.49990  Biso   1.000  I
  I8       1.0000 0.82339  0.32482  0.50000  Biso   1.000  I
  Sn1      1.0000 0.49949  0.50036  0.49962  Biso   1.000  Sn
  Sn2      1.0000 0.99970  0.00061  0.49968  Biso   1.000  Sn
