data_image0
_cell_length_a       4.38821
_cell_length_b       4.38929
_cell_length_c       18.8558
_cell_angle_alpha    90
_cell_angle_beta     90
_cell_angle_gamma    119.992

_symmetry_space_group_name_H-M    "P 1"
_symmetry_int_tables_number       1

loop_
  _symmetry_equiv_pos_as_xyz
  'x, y, z'

loop_
  _atom_site_label
  _atom_site_occupancy
  _atom_site_fract_x
  _atom_site_fract_y
  _atom_site_fract_z
  _atom_site_thermal_displace_type
  _atom_site_B_iso_or_equiv
  _atom_site_type_symbol
  I1       1.0000 0.99976  0.00019  0.34520  Biso   1.000  I
  I2       1.0000 0.33358  0.66646  0.65486  Biso   1.000  I
  Sn1      1.0000 0.99994  0.00013  0.54638  Biso   1.000  Sn
  Sn2      1.0000 0.33338  0.66655  0.45369  Biso   1.000  Sn
