data_image0
_cell_length_a       7.03544
_cell_length_b       7.03744
_cell_length_c       18.4116
_cell_angle_alpha    90
_cell_angle_beta     90
_cell_angle_gamma    119.991

_symmetry_space_group_name_H-M    "P 1"
_symmetry_int_tables_number       1

loop_
  _symmetry_equiv_pos_as_xyz
  'x, y, z'

loop_
  _atom_site_label
  _atom_site_occupancy
  _atom_site_fract_x
  _atom_site_fract_y
  _atom_site_fract_z
  _atom_site_thermal_displace_type
  _atom_site_B_iso_or_equiv
  _atom_site_type_symbol
  Sn1      1.0000 0.00003  0.99997  0.50024  Biso   1.000  Sn
  Sn2      1.0000 0.33331  0.66672  0.49979  Biso   1.000  Sn
  P1       1.0000 0.66669  0.33335  0.43824  Biso   1.000  P
  P2       1.0000 0.66664  0.33332  0.56173  Biso   1.000  P
  Se1      1.0000 0.36562  0.03352  0.40158  Biso   1.000  Se
  Se2      1.0000 0.96665  0.33214  0.40163  Biso   1.000  Se
  Se3      1.0000 0.66785  0.63434  0.40159  Biso   1.000  Se
  Se4      1.0000 0.96776  0.63306  0.59843  Biso   1.000  Se
  Se5      1.0000 0.36679  0.33469  0.59837  Biso   1.000  Se
  Se6      1.0000 0.66534  0.03229  0.59842  Biso   1.000  Se
