data_image0
_cell_length_a       4.32468
_cell_length_b       4.06381
_cell_length_c       17.1098
_cell_angle_alpha    90
_cell_angle_beta     90
_cell_angle_gamma    90

_symmetry_space_group_name_H-M    "P 1"
_symmetry_int_tables_number       1

loop_
  _symmetry_equiv_pos_as_xyz
  'x, y, z'

loop_
  _atom_site_label
  _atom_site_occupancy
  _atom_site_fract_x
  _atom_site_fract_y
  _atom_site_fract_z
  _atom_site_thermal_displace_type
  _atom_site_B_iso_or_equiv
  _atom_site_type_symbol
  S1       1.0000 0.05442  0.99992  0.43381  Biso   1.000  S
  S2       1.0000 0.55448  0.49991  0.56620  Biso   1.000  S
  Sn1      1.0000 0.13850  0.99991  0.58369  Biso   1.000  Sn
  Sn2      1.0000 0.63856  0.49991  0.41632  Biso   1.000  Sn
