data_image0
_cell_length_a       4.58147
_cell_length_b       4.54599
_cell_length_c       17.1098
_cell_angle_alpha    90
_cell_angle_beta     90
_cell_angle_gamma    90

_symmetry_space_group_name_H-M    "P 1"
_symmetry_int_tables_number       1

loop_
  _symmetry_equiv_pos_as_xyz
  'x, y, z'

loop_
  _atom_site_label
  _atom_site_occupancy
  _atom_site_fract_x
  _atom_site_fract_y
  _atom_site_fract_z
  _atom_site_thermal_displace_type
  _atom_site_B_iso_or_equiv
  _atom_site_type_symbol
  Te1      1.0000 0.08114  0.99993  0.40781  Biso   1.000  Te
  Te2      1.0000 0.58119  0.49989  0.59221  Biso   1.000  Te
  Sn1      1.0000 0.11073  0.99992  0.57828  Biso   1.000  Sn
  Sn2      1.0000 0.61077  0.49990  0.42173  Biso   1.000  Sn
