data_image0
_cell_length_a       5.81525
_cell_length_b       7.09835
_cell_length_c       16.5885
_cell_angle_alpha    90
_cell_angle_beta     90
_cell_angle_gamma    90

_symmetry_space_group_name_H-M    "P 1"
_symmetry_int_tables_number       1

loop_
  _symmetry_equiv_pos_as_xyz
  'x, y, z'

loop_
  _atom_site_label
  _atom_site_occupancy
  _atom_site_fract_x
  _atom_site_fract_y
  _atom_site_fract_z
  _atom_site_thermal_displace_type
  _atom_site_B_iso_or_equiv
  _atom_site_type_symbol
  Sn1      1.0000 0.50000  0.00000  0.50000  Biso   1.000  Sn
  Sn2      1.0000 0.00000  0.50000  0.50000  Biso   1.000  Sn
  Te1      1.0000 0.99982  0.08023  0.42453  Biso   1.000  Te
  Te2      1.0000 0.49982  0.41977  0.57547  Biso   1.000  Te
  Te3      1.0000 0.00018  0.91977  0.57547  Biso   1.000  Te
  Te4      1.0000 0.50018  0.58023  0.42453  Biso   1.000  Te
