data_image0
_cell_length_a       9.35944
_cell_length_b       9.35944
_cell_length_c       20
_cell_angle_alpha    90
_cell_angle_beta     90
_cell_angle_gamma    60.0523

_symmetry_space_group_name_H-M    "P 1"
_symmetry_int_tables_number       1

loop_
  _symmetry_equiv_pos_as_xyz
  'x, y, z'

loop_
  _atom_site_label
  _atom_site_occupancy
  _atom_site_fract_x
  _atom_site_fract_y
  _atom_site_fract_z
  _atom_site_thermal_displace_type
  _atom_site_B_iso_or_equiv
  _atom_site_type_symbol
  Sn1      1.0000 0.01165  0.01165  0.37500  Biso   1.000  Sn
  P1       1.0000 0.16671  0.16671  0.37500  Biso   1.000  P
  Sn2      1.0000 0.47652  0.01169  0.37500  Biso   1.000  Sn
  Sn3      1.0000 0.01169  0.47652  0.37500  Biso   1.000  Sn
  Sn4      1.0000 0.65498  0.19014  0.37500  Biso   1.000  Sn
  Sn5      1.0000 0.19014  0.65498  0.37500  Biso   1.000  Sn
  P2       1.0000 0.49996  0.49996  0.37500  Biso   1.000  P
  Sn6      1.0000 0.65502  0.65502  0.37500  Biso   1.000  Sn
