data_image0
_cell_length_a       3.32162
_cell_length_b       3.32272
_cell_length_c       18.8558
_cell_angle_alpha    90
_cell_angle_beta     90
_cell_angle_gamma    119.989

_symmetry_space_group_name_H-M    "P 1"
_symmetry_int_tables_number       1

loop_
  _symmetry_equiv_pos_as_xyz
  'x, y, z'

loop_
  _atom_site_label
  _atom_site_occupancy
  _atom_site_fract_x
  _atom_site_fract_y
  _atom_site_fract_z
  _atom_site_thermal_displace_type
  _atom_site_B_iso_or_equiv
  _atom_site_type_symbol
  Br1      1.0000 0.99984  0.00003  0.34268  Biso   1.000  Br
  Br2      1.0000 0.33349  0.66663  0.65739  Biso   1.000  Br
  Ta1      1.0000 0.00019  0.00018  0.55520  Biso   1.000  Ta
  Ta2      1.0000 0.33314  0.66649  0.44487  Biso   1.000  Ta
