data_image0
_cell_length_a       2.93109
_cell_length_b       2.92662
_cell_length_c       18.8558
_cell_angle_alpha    90
_cell_angle_beta     90
_cell_angle_gamma    120.051

_symmetry_space_group_name_H-M    "P 1"
_symmetry_int_tables_number       1

loop_
  _symmetry_equiv_pos_as_xyz
  'x, y, z'

loop_
  _atom_site_label
  _atom_site_occupancy
  _atom_site_fract_x
  _atom_site_fract_y
  _atom_site_fract_z
  _atom_site_thermal_displace_type
  _atom_site_B_iso_or_equiv
  _atom_site_type_symbol
  F1       1.0000 0.98757  0.01274  0.35825  Biso   1.000  F
  F2       1.0000 0.34575  0.65394  0.64181  Biso   1.000  F
  Ta1      1.0000 0.01423  0.98492  0.56566  Biso   1.000  Ta
  Ta2      1.0000 0.31910  0.68176  0.43440  Biso   1.000  Ta
