data_image0
_cell_length_a       3.74581
_cell_length_b       6.52922
_cell_length_c       18.889
_cell_angle_alpha    90
_cell_angle_beta     90
_cell_angle_gamma    90

_symmetry_space_group_name_H-M    "P 1"
_symmetry_int_tables_number       1

loop_
  _symmetry_equiv_pos_as_xyz
  'x, y, z'

loop_
  _atom_site_label
  _atom_site_occupancy
  _atom_site_fract_x
  _atom_site_fract_y
  _atom_site_fract_z
  _atom_site_thermal_displace_type
  _atom_site_B_iso_or_equiv
  _atom_site_type_symbol
  Ta1      1.0000 0.00000  0.08792  0.50728  Biso   1.000  Ta
  I1       1.0000 0.50000  0.17802  0.61595  Biso   1.000  I
  I2       1.0000 0.00000  0.32198  0.38405  Biso   1.000  I
  Ta2      1.0000 0.50000  0.41208  0.49272  Biso   1.000  Ta
  I3       1.0000 0.00000  0.68002  0.58333  Biso   1.000  I
  I4       1.0000 0.50000  0.81998  0.41667  Biso   1.000  I
