data_image0
_cell_length_a       3.51282
_cell_length_b       3.51383
_cell_length_c       18.8558
_cell_angle_alpha    90
_cell_angle_beta     90
_cell_angle_gamma    119.99

_symmetry_space_group_name_H-M    "P 1"
_symmetry_int_tables_number       1

loop_
  _symmetry_equiv_pos_as_xyz
  'x, y, z'

loop_
  _atom_site_label
  _atom_site_occupancy
  _atom_site_fract_x
  _atom_site_fract_y
  _atom_site_fract_z
  _atom_site_thermal_displace_type
  _atom_site_B_iso_or_equiv
  _atom_site_type_symbol
  I1       1.0000 0.99992  0.00003  0.33678  Biso   1.000  I
  I2       1.0000 0.33341  0.66663  0.66328  Biso   1.000  I
  Ta1      1.0000 0.00011  0.00014  0.55190  Biso   1.000  Ta
  Ta2      1.0000 0.33323  0.66652  0.44817  Biso   1.000  Ta
