data_image0
_cell_length_a       4.08031
_cell_length_b       2.95938
_cell_length_c       19.4238
_cell_angle_alpha    90
_cell_angle_beta     90
_cell_angle_gamma    90

_symmetry_space_group_name_H-M    "P 1"
_symmetry_int_tables_number       1

loop_
  _symmetry_equiv_pos_as_xyz
  'x, y, z'

loop_
  _atom_site_label
  _atom_site_occupancy
  _atom_site_fract_x
  _atom_site_fract_y
  _atom_site_fract_z
  _atom_site_thermal_displace_type
  _atom_site_B_iso_or_equiv
  _atom_site_type_symbol
  Ta1      1.0000 0.63163  0.25000  0.56562  Biso   1.000  Ta
  Ta2      1.0000 0.13161  0.75000  0.43438  Biso   1.000  Ta
  O1       1.0000 0.13162  0.25000  0.51383  Biso   1.000  O
  O2       1.0000 0.63162  0.75000  0.48617  Biso   1.000  O
  O3       1.0000 0.38314  0.25000  0.38622  Biso   1.000  O
  O4       1.0000 0.38011  0.75000  0.61378  Biso   1.000  O
  O5       1.0000 0.88006  0.25000  0.38623  Biso   1.000  O
  O6       1.0000 0.88317  0.75000  0.61377  Biso   1.000  O
