data_image0
_cell_length_a       6.28819
_cell_length_b       7.15231
_cell_length_c       19.277
_cell_angle_alpha    90
_cell_angle_beta     90
_cell_angle_gamma    116.078

_symmetry_space_group_name_H-M    "P 1"
_symmetry_int_tables_number       1

loop_
  _symmetry_equiv_pos_as_xyz
  'x, y, z'

loop_
  _atom_site_label
  _atom_site_occupancy
  _atom_site_fract_x
  _atom_site_fract_y
  _atom_site_fract_z
  _atom_site_thermal_displace_type
  _atom_site_B_iso_or_equiv
  _atom_site_type_symbol
  Ta1      1.0000 0.07274  0.99298  0.50364  Biso   1.000  Ta
  Ta2      1.0000 0.26117  0.67409  0.49637  Biso   1.000  Ta
  P1       1.0000 0.65994  0.34043  0.44305  Biso   1.000  P
  P2       1.0000 0.67249  0.32566  0.55666  Biso   1.000  P
  Te1      1.0000 0.29324  0.92427  0.38875  Biso   1.000  Te
  Te2      1.0000 0.03467  0.31028  0.41009  Biso   1.000  Te
  Te3      1.0000 0.68008  0.70710  0.42205  Biso   1.000  Te
  Te4      1.0000 0.03994  0.74205  0.61118  Biso   1.000  Te
  Te5      1.0000 0.29860  0.35664  0.58995  Biso   1.000  Te
  Te6      1.0000 0.65382  0.95989  0.57791  Biso   1.000  Te
