data_image0
_cell_length_a       5.96737
_cell_length_b       6.78712
_cell_length_c       18.6272
_cell_angle_alpha    90
_cell_angle_beta     90
_cell_angle_gamma    116.079

_symmetry_space_group_name_H-M    "P 1"
_symmetry_int_tables_number       1

loop_
  _symmetry_equiv_pos_as_xyz
  'x, y, z'

loop_
  _atom_site_label
  _atom_site_occupancy
  _atom_site_fract_x
  _atom_site_fract_y
  _atom_site_fract_z
  _atom_site_thermal_displace_type
  _atom_site_B_iso_or_equiv
  _atom_site_type_symbol
  Ta1      1.0000 0.06353  0.99440  0.50336  Biso   1.000  Ta
  Ta2      1.0000 0.26980  0.67224  0.49667  Biso   1.000  Ta
  P1       1.0000 0.65902  0.34589  0.44053  Biso   1.000  P
  P2       1.0000 0.67438  0.32071  0.55944  Biso   1.000  P
  Se1      1.0000 0.28738  0.92009  0.39722  Biso   1.000  Se
  Se2      1.0000 0.02901  0.32266  0.41373  Biso   1.000  Se
  Se3      1.0000 0.68109  0.69985  0.42555  Biso   1.000  Se
  Se4      1.0000 0.04588  0.74655  0.60279  Biso   1.000  Se
  Se5      1.0000 0.30433  0.34406  0.58632  Biso   1.000  Se
  Se6      1.0000 0.65229  0.96696  0.57445  Biso   1.000  Se
