data_image0
_cell_length_a       5.87219
_cell_length_b       6.64147
_cell_length_c       18.1247
_cell_angle_alpha    90
_cell_angle_beta     90
_cell_angle_gamma    116.237

_symmetry_space_group_name_H-M    "P 1"
_symmetry_int_tables_number       1

loop_
  _symmetry_equiv_pos_as_xyz
  'x, y, z'

loop_
  _atom_site_label
  _atom_site_occupancy
  _atom_site_fract_x
  _atom_site_fract_y
  _atom_site_fract_z
  _atom_site_thermal_displace_type
  _atom_site_B_iso_or_equiv
  _atom_site_type_symbol
  Ta1      1.0000 0.99497  0.95938  0.49806  Biso   1.000  Ta
  Ta2      1.0000 0.33835  0.70731  0.50182  Biso   1.000  Ta
  P1       1.0000 0.67828  0.33760  0.43738  Biso   1.000  P
  P2       1.0000 0.65508  0.32910  0.56250  Biso   1.000  P
  S1       1.0000 0.34980  0.00278  0.41859  Biso   1.000  S
  S2       1.0000 0.02662  0.32164  0.42541  Biso   1.000  S
  S3       1.0000 0.68789  0.73880  0.41442  Biso   1.000  S
  S4       1.0000 0.98347  0.66388  0.58130  Biso   1.000  S
  S5       1.0000 0.30671  0.34500  0.57447  Biso   1.000  S
  S6       1.0000 0.64551  0.92790  0.58545  Biso   1.000  S
