data_image0
_cell_length_a       4.9823
_cell_length_b       3.3639
_cell_length_c       20.8732
_cell_angle_alpha    90
_cell_angle_beta     90
_cell_angle_gamma    90

_symmetry_space_group_name_H-M    "P 1"
_symmetry_int_tables_number       1

loop_
  _symmetry_equiv_pos_as_xyz
  'x, y, z'

loop_
  _atom_site_label
  _atom_site_occupancy
  _atom_site_fract_x
  _atom_site_fract_y
  _atom_site_fract_z
  _atom_site_thermal_displace_type
  _atom_site_B_iso_or_equiv
  _atom_site_type_symbol
  Ta1      1.0000 0.63164  0.25000  0.57147  Biso   1.000  Ta
  Ta2      1.0000 0.13158  0.75000  0.42853  Biso   1.000  Ta
  S1       1.0000 0.13161  0.25000  0.51944  Biso   1.000  S
  S2       1.0000 0.63161  0.75000  0.48056  Biso   1.000  S
  S3       1.0000 0.37818  0.25000  0.36230  Biso   1.000  S
  S4       1.0000 0.38504  0.75000  0.63770  Biso   1.000  S
  S5       1.0000 0.88497  0.25000  0.36231  Biso   1.000  S
  S6       1.0000 0.87825  0.75000  0.63769  Biso   1.000  S
