data_image0
_cell_length_a       3.21482
_cell_length_b       3.21475
_cell_length_c       20.6696
_cell_angle_alpha    90
_cell_angle_beta     90
_cell_angle_gamma    120.001

_symmetry_space_group_name_H-M    "P 1"
_symmetry_int_tables_number       1

loop_
  _symmetry_equiv_pos_as_xyz
  'x, y, z'

loop_
  _atom_site_label
  _atom_site_occupancy
  _atom_site_fract_x
  _atom_site_fract_y
  _atom_site_fract_z
  _atom_site_thermal_displace_type
  _atom_site_B_iso_or_equiv
  _atom_site_type_symbol
  Ta1      1.0000 0.33335  0.66659  0.56625  Biso   1.000  Ta
  S1       1.0000 0.66667  0.33340  0.35839  Biso   1.000  S
  S2       1.0000 0.00000  0.99994  0.64161  Biso   1.000  S
  Ta2      1.0000 0.33332  0.66674  0.43375  Biso   1.000  Ta
