data_image0
_cell_length_a       7.14535
_cell_length_b       7.14845
_cell_length_c       15.0788
_cell_angle_alpha    90
_cell_angle_beta     90
_cell_angle_gamma    90

_symmetry_space_group_name_H-M    "P 1"
_symmetry_int_tables_number       1

loop_
  _symmetry_equiv_pos_as_xyz
  'x, y, z'

loop_
  _atom_site_label
  _atom_site_occupancy
  _atom_site_fract_x
  _atom_site_fract_y
  _atom_site_fract_z
  _atom_site_thermal_displace_type
  _atom_site_B_iso_or_equiv
  _atom_site_type_symbol
  Ta1      1.0000 0.50000  1.00000  0.50000  Biso   1.000  Ta
  Ta2      1.0000 0.00000  0.50000  0.50000  Biso   1.000  Ta
  Te1      1.0000 0.15653  0.15659  0.49998  Biso   1.000  Te
  Te2      1.0000 0.65653  0.34341  0.50002  Biso   1.000  Te
  Te3      1.0000 0.84347  0.84341  0.50002  Biso   1.000  Te
  Te4      1.0000 0.34347  0.65659  0.49998  Biso   1.000  Te
