data_image0
_cell_length_a       2.9055
_cell_length_b       2.9055
_cell_length_c       23.8418
_cell_angle_alpha    90
_cell_angle_beta     90
_cell_angle_gamma    120

_symmetry_space_group_name_H-M    "P 1"
_symmetry_int_tables_number       1

loop_
  _symmetry_equiv_pos_as_xyz
  'x, y, z'

loop_
  _atom_site_label
  _atom_site_occupancy
  _atom_site_fract_x
  _atom_site_fract_y
  _atom_site_fract_z
  _atom_site_thermal_displace_type
  _atom_site_B_iso_or_equiv
  _atom_site_type_symbol
  Ta1      1.0000 0.00000  0.00000  0.50000  Biso   1.000  Ta
  Ta2      1.0000 0.66667  0.33333  0.62057  Biso   1.000  Ta
  Ta3      1.0000 0.66667  0.33333  0.37943  Biso   1.000  Ta
  N1       1.0000 0.33333  0.66667  0.55883  Biso   1.000  N
  N2       1.0000 0.33333  0.66667  0.44117  Biso   1.000  N
  F1       1.0000 0.00000  0.00000  0.68470  Biso   1.000  F
  F2       1.0000 0.00000  0.00000  0.31530  Biso   1.000  F
