data_image0
_cell_length_a       2.93702
_cell_length_b       2.93702
_cell_length_c       25.5796
_cell_angle_alpha    90
_cell_angle_beta     90
_cell_angle_gamma    120

_symmetry_space_group_name_H-M    "P 1"
_symmetry_int_tables_number       1

loop_
  _symmetry_equiv_pos_as_xyz
  'x, y, z'

loop_
  _atom_site_label
  _atom_site_occupancy
  _atom_site_fract_x
  _atom_site_fract_y
  _atom_site_fract_z
  _atom_site_thermal_displace_type
  _atom_site_B_iso_or_equiv
  _atom_site_type_symbol
  Ta1      1.0000 0.00000  0.00000  0.50000  Biso   1.000  Ta
  Ta2      1.0000 0.66667  0.33333  0.61178  Biso   1.000  Ta
  Ta3      1.0000 0.66667  0.33333  0.38822  Biso   1.000  Ta
  N1       1.0000 0.33333  0.66667  0.55404  Biso   1.000  N
  N2       1.0000 0.33333  0.66667  0.44596  Biso   1.000  N
  O1       1.0000 0.00000  0.00000  0.66859  Biso   1.000  O
  O2       1.0000 0.00000  0.00000  0.33142  Biso   1.000  O
  H1       1.0000 0.00000  0.00000  0.70710  Biso   1.000  H
  H2       1.0000 0.00000  0.00000  0.29290  Biso   1.000  H
