data_image0
_cell_length_a       6.1637
_cell_length_b       6.13967
_cell_length_c       18.4419
_cell_angle_alpha    90
_cell_angle_beta     90
_cell_angle_gamma    119.611

_symmetry_space_group_name_H-M    "P 1"
_symmetry_int_tables_number       1

loop_
  _symmetry_equiv_pos_as_xyz
  'x, y, z'

loop_
  _atom_site_label
  _atom_site_occupancy
  _atom_site_fract_x
  _atom_site_fract_y
  _atom_site_fract_z
  _atom_site_thermal_displace_type
  _atom_site_B_iso_or_equiv
  _atom_site_type_symbol
  Ta1      1.0000 0.95253  0.94571  0.51056  Biso   1.000  Ta
  Ta2      1.0000 0.92915  0.43383  0.48945  Biso   1.000  Ta
  Ta3      1.0000 0.44045  0.40609  0.50003  Biso   1.000  Ta
  Ta4      1.0000 0.44126  0.97346  0.49997  Biso   1.000  Ta
  O1       1.0000 0.22682  0.08277  0.43413  Biso   1.000  O
  O2       1.0000 0.65491  0.29678  0.56588  Biso   1.000  O
  O3       1.0000 0.77645  0.62224  0.44492  Biso   1.000  O
  O4       1.0000 0.10526  0.75734  0.55508  Biso   1.000  O
  O5       1.0000 0.10470  0.28581  0.55529  Biso   1.000  O
  O6       1.0000 0.77700  0.09371  0.44471  Biso   1.000  O
  O7       1.0000 0.61244  0.77556  0.55413  Biso   1.000  O
  O8       1.0000 0.26922  0.60394  0.44586  Biso   1.000  O
