data_image0
_cell_length_a       6.59381
_cell_length_b       6.59381
_cell_length_c       18.2679
_cell_angle_alpha    90
_cell_angle_beta     90
_cell_angle_gamma    120

_symmetry_space_group_name_H-M    "P 1"
_symmetry_int_tables_number       1

loop_
  _symmetry_equiv_pos_as_xyz
  'x, y, z'

loop_
  _atom_site_label
  _atom_site_occupancy
  _atom_site_fract_x
  _atom_site_fract_y
  _atom_site_fract_z
  _atom_site_thermal_displace_type
  _atom_site_B_iso_or_equiv
  _atom_site_type_symbol
  Ti1      1.0000 0.66667  0.33333  0.50000  Biso   1.000  Ti
  Ti2      1.0000 0.33333  0.66667  0.50000  Biso   1.000  Ti
  Br1      1.0000 0.39449  1.00000  0.41073  Biso   1.000  Br
  Br2      1.0000 0.60551  0.60551  0.41073  Biso   1.000  Br
  Br3      1.0000 0.00000  0.39449  0.41073  Biso   1.000  Br
  Br4      1.0000 0.39449  0.00000  0.58927  Biso   1.000  Br
  Br5      1.0000 0.60551  0.60551  0.58927  Biso   1.000  Br
  Br6      1.0000 1.00000  0.39449  0.58927  Biso   1.000  Br
