data_image0
_cell_length_a       3.85572
_cell_length_b       3.85775
_cell_length_c       18.8558
_cell_angle_alpha    90
_cell_angle_beta     90
_cell_angle_gamma    119.983

_symmetry_space_group_name_H-M    "P 1"
_symmetry_int_tables_number       1

loop_
  _symmetry_equiv_pos_as_xyz
  'x, y, z'

loop_
  _atom_site_label
  _atom_site_occupancy
  _atom_site_fract_x
  _atom_site_fract_y
  _atom_site_fract_z
  _atom_site_thermal_displace_type
  _atom_site_B_iso_or_equiv
  _atom_site_type_symbol
  Cl1      1.0000 0.99998  0.00011  0.40431  Biso   1.000  Cl
  Cl2      1.0000 0.33336  0.66656  0.59576  Biso   1.000  Cl
  Ti1      1.0000 0.00004  0.00010  0.53898  Biso   1.000  Ti
  Ti2      1.0000 0.33330  0.66657  0.46109  Biso   1.000  Ti
