data_image0
_cell_length_a       3.24958
_cell_length_b       5.91335
_cell_length_c       18.1858
_cell_angle_alpha    90
_cell_angle_beta     90
_cell_angle_gamma    90

_symmetry_space_group_name_H-M    "P 1"
_symmetry_int_tables_number       1

loop_
  _symmetry_equiv_pos_as_xyz
  'x, y, z'

loop_
  _atom_site_label
  _atom_site_occupancy
  _atom_site_fract_x
  _atom_site_fract_y
  _atom_site_fract_z
  _atom_site_thermal_displace_type
  _atom_site_B_iso_or_equiv
  _atom_site_type_symbol
  Ti1      1.0000 0.00000  0.05504  0.50144  Biso   1.000  Ti
  Cl1      1.0000 0.50000  0.16387  0.59697  Biso   1.000  Cl
  Cl2      1.0000 0.00000  0.33613  0.40303  Biso   1.000  Cl
  Ti2      1.0000 0.50000  0.44496  0.49856  Biso   1.000  Ti
  Cl3      1.0000 1.00000  0.66579  0.57444  Biso   1.000  Cl
  Cl4      1.0000 0.50000  0.83421  0.42556  Biso   1.000  Cl
