data_image0
_cell_length_a       2.88838
_cell_length_b       2.89032
_cell_length_c       18.8558
_cell_angle_alpha    90
_cell_angle_beta     90
_cell_angle_gamma    119.978

_symmetry_space_group_name_H-M    "P 1"
_symmetry_int_tables_number       1

loop_
  _symmetry_equiv_pos_as_xyz
  'x, y, z'

loop_
  _atom_site_label
  _atom_site_occupancy
  _atom_site_fract_x
  _atom_site_fract_y
  _atom_site_fract_z
  _atom_site_thermal_displace_type
  _atom_site_B_iso_or_equiv
  _atom_site_type_symbol
  F1       1.0000 0.00002  0.00021  0.37045  Biso   1.000  F
  F2       1.0000 0.33331  0.66646  0.62962  Biso   1.000  F
  Ti1      1.0000 0.00002  0.00035  0.56012  Biso   1.000  Ti
  Ti2      1.0000 0.33332  0.66632  0.43995  Biso   1.000  Ti
