data_image0
_cell_length_a       4.09781
_cell_length_b       4.10429
_cell_length_c       18.8558
_cell_angle_alpha    90
_cell_angle_beta     90
_cell_angle_gamma    119.948

_symmetry_space_group_name_H-M    "P 1"
_symmetry_int_tables_number       1

loop_
  _symmetry_equiv_pos_as_xyz
  'x, y, z'

loop_
  _atom_site_label
  _atom_site_occupancy
  _atom_site_fract_x
  _atom_site_fract_y
  _atom_site_fract_z
  _atom_site_thermal_displace_type
  _atom_site_B_iso_or_equiv
  _atom_site_type_symbol
  I1       1.0000 0.99999  0.00009  0.38141  Biso   1.000  I
  I2       1.0000 0.33334  0.66657  0.61866  Biso   1.000  I
  Ti1      1.0000 0.00017  0.00031  0.53663  Biso   1.000  Ti
  Ti2      1.0000 0.33316  0.66635  0.46343  Biso   1.000  Ti
