data_image0
_cell_length_a       3.74982
_cell_length_b       6.67207
_cell_length_c       18.383
_cell_angle_alpha    90
_cell_angle_beta     90
_cell_angle_gamma    90

_symmetry_space_group_name_H-M    "P 1"
_symmetry_int_tables_number       1

loop_
  _symmetry_equiv_pos_as_xyz
  'x, y, z'

loop_
  _atom_site_label
  _atom_site_occupancy
  _atom_site_fract_x
  _atom_site_fract_y
  _atom_site_fract_z
  _atom_site_thermal_displace_type
  _atom_site_B_iso_or_equiv
  _atom_site_type_symbol
  Ti1      1.0000 0.00000  0.06677  0.50210  Biso   1.000  Ti
  I1       1.0000 0.50000  0.16082  0.61145  Biso   1.000  I
  I2       1.0000 0.00000  0.33918  0.38855  Biso   1.000  I
  Ti2      1.0000 0.50000  0.43323  0.49790  Biso   1.000  Ti
  I3       1.0000 1.00000  0.66102  0.58290  Biso   1.000  I
  I4       1.0000 0.50000  0.83898  0.41710  Biso   1.000  I
