data_image0
_cell_length_a       2.99876
_cell_length_b       5.18581
_cell_length_c       16.9357
_cell_angle_alpha    90
_cell_angle_beta     90
_cell_angle_gamma    90

_symmetry_space_group_name_H-M    "P 1"
_symmetry_int_tables_number       1

loop_
  _symmetry_equiv_pos_as_xyz
  'x, y, z'

loop_
  _atom_site_label
  _atom_site_occupancy
  _atom_site_fract_x
  _atom_site_fract_y
  _atom_site_fract_z
  _atom_site_thermal_displace_type
  _atom_site_B_iso_or_equiv
  _atom_site_type_symbol
  Ti1      1.0000 0.00000  0.00581  0.48951  Biso   1.000  Ti
  O1       1.0000 0.50000  0.16559  0.55660  Biso   1.000  O
  O2       1.0000 0.00000  0.33441  0.44340  Biso   1.000  O
  Ti2      1.0000 0.50000  0.49419  0.51049  Biso   1.000  Ti
  O3       1.0000 1.00000  0.66614  0.55841  Biso   1.000  O
  O4       1.0000 0.50000  0.83385  0.44159  Biso   1.000  O
