data_image0
_cell_length_a       6.85234
_cell_length_b       6.86121
_cell_length_c       18.4116
_cell_angle_alpha    90
_cell_angle_beta     90
_cell_angle_gamma    119.957

_symmetry_space_group_name_H-M    "P 1"
_symmetry_int_tables_number       1

loop_
  _symmetry_equiv_pos_as_xyz
  'x, y, z'

loop_
  _atom_site_label
  _atom_site_occupancy
  _atom_site_fract_x
  _atom_site_fract_y
  _atom_site_fract_z
  _atom_site_thermal_displace_type
  _atom_site_B_iso_or_equiv
  _atom_site_type_symbol
  Ti1      1.0000 0.99972  0.99948  0.50000  Biso   1.000  Ti
  Ti2      1.0000 0.33362  0.66720  0.49999  Biso   1.000  Ti
  P1       1.0000 0.66680  0.33337  0.43915  Biso   1.000  P
  P2       1.0000 0.66654  0.33331  0.56091  Biso   1.000  P
  Te1      1.0000 0.30781  0.97450  0.40384  Biso   1.000  Te
  Te2      1.0000 0.02585  0.33332  0.40394  Biso   1.000  Te
  Te3      1.0000 0.66667  0.69220  0.40384  Biso   1.000  Te
  Te4      1.0000 0.02561  0.69227  0.59615  Biso   1.000  Te
  Te5      1.0000 0.30740  0.33335  0.59605  Biso   1.000  Te
  Te6      1.0000 0.66669  0.97440  0.59615  Biso   1.000  Te
