data_image0
_cell_length_a       6.88383
_cell_length_b       6.89301
_cell_length_c       18.4116
_cell_angle_alpha    90
_cell_angle_beta     90
_cell_angle_gamma    119.956

_symmetry_space_group_name_H-M    "P 1"
_symmetry_int_tables_number       1

loop_
  _symmetry_equiv_pos_as_xyz
  'x, y, z'

loop_
  _atom_site_label
  _atom_site_occupancy
  _atom_site_fract_x
  _atom_site_fract_y
  _atom_site_fract_z
  _atom_site_thermal_displace_type
  _atom_site_B_iso_or_equiv
  _atom_site_type_symbol
  Ti1      1.0000 0.99967  0.99919  0.50000  Biso   1.000  Ti
  Ti2      1.0000 0.33367  0.66750  0.50000  Biso   1.000  Ti
  P1       1.0000 0.66670  0.33336  0.43922  Biso   1.000  P
  P2       1.0000 0.66664  0.33333  0.56081  Biso   1.000  P
  Te1      1.0000 0.30794  0.97472  0.40475  Biso   1.000  Te
  Te2      1.0000 0.02530  0.33329  0.40491  Biso   1.000  Te
  Te3      1.0000 0.66652  0.69192  0.40478  Biso   1.000  Te
  Te4      1.0000 0.02543  0.69199  0.59525  Biso   1.000  Te
  Te5      1.0000 0.30801  0.33339  0.59509  Biso   1.000  Te
  Te6      1.0000 0.66682  0.97473  0.59522  Biso   1.000  Te
