data_image0
_cell_length_a       5.94852
_cell_length_b       5.95031
_cell_length_c       18.4116
_cell_angle_alpha    90
_cell_angle_beta     90
_cell_angle_gamma    119.99

_symmetry_space_group_name_H-M    "P 1"
_symmetry_int_tables_number       1

loop_
  _symmetry_equiv_pos_as_xyz
  'x, y, z'

loop_
  _atom_site_label
  _atom_site_occupancy
  _atom_site_fract_x
  _atom_site_fract_y
  _atom_site_fract_z
  _atom_site_thermal_displace_type
  _atom_site_B_iso_or_equiv
  _atom_site_type_symbol
  Ti1      1.0000 0.99995  0.99991  0.50001  Biso   1.000  Ti
  Ti2      1.0000 0.33339  0.66677  0.50000  Biso   1.000  Ti
  P1       1.0000 0.66670  0.33334  0.43976  Biso   1.000  P
  P2       1.0000 0.66664  0.33334  0.56024  Biso   1.000  P
  S1       1.0000 0.32689  0.99356  0.41381  Biso   1.000  S
  S2       1.0000 0.00651  0.33330  0.41381  Biso   1.000  S
  S3       1.0000 0.66669  0.67310  0.41381  Biso   1.000  S
  S4       1.0000 0.00644  0.67311  0.58620  Biso   1.000  S
  S5       1.0000 0.32684  0.33338  0.58620  Biso   1.000  S
  S6       1.0000 0.66665  0.99359  0.58620  Biso   1.000  S
