data_image0
_cell_length_a       5.95147
_cell_length_b       5.95371
_cell_length_c       18.4116
_cell_angle_alpha    90
_cell_angle_beta     90
_cell_angle_gamma    119.988

_symmetry_space_group_name_H-M    "P 1"
_symmetry_int_tables_number       1

loop_
  _symmetry_equiv_pos_as_xyz
  'x, y, z'

loop_
  _atom_site_label
  _atom_site_occupancy
  _atom_site_fract_x
  _atom_site_fract_y
  _atom_site_fract_z
  _atom_site_thermal_displace_type
  _atom_site_B_iso_or_equiv
  _atom_site_type_symbol
  Ti1      1.0000 0.99993  0.99974  0.49999  Biso   1.000  Ti
  Ti2      1.0000 0.33341  0.66694  0.50001  Biso   1.000  Ti
  P1       1.0000 0.66674  0.33337  0.43969  Biso   1.000  P
  P2       1.0000 0.66660  0.33331  0.56035  Biso   1.000  P
  S1       1.0000 0.32622  0.99284  0.41478  Biso   1.000  S
  S2       1.0000 0.00731  0.33336  0.41481  Biso   1.000  S
  S3       1.0000 0.66660  0.67379  0.41479  Biso   1.000  S
  S4       1.0000 0.00718  0.67389  0.58522  Biso   1.000  S
  S5       1.0000 0.32598  0.33333  0.58519  Biso   1.000  S
  S6       1.0000 0.66672  0.99282  0.58520  Biso   1.000  S
