data_image0
_cell_length_a       6.33629
_cell_length_b       6.3451
_cell_length_c       18.4116
_cell_angle_alpha    90
_cell_angle_beta     90
_cell_angle_gamma    119.954

_symmetry_space_group_name_H-M    "P 1"
_symmetry_int_tables_number       1

loop_
  _symmetry_equiv_pos_as_xyz
  'x, y, z'

loop_
  _atom_site_label
  _atom_site_occupancy
  _atom_site_fract_x
  _atom_site_fract_y
  _atom_site_fract_z
  _atom_site_thermal_displace_type
  _atom_site_B_iso_or_equiv
  _atom_site_type_symbol
  Ti1      1.0000 0.99972  0.99926  0.49998  Biso   1.000  Ti
  Ti2      1.0000 0.33362  0.66742  0.49997  Biso   1.000  Ti
  P1       1.0000 0.66680  0.33337  0.43921  Biso   1.000  P
  P2       1.0000 0.66654  0.33331  0.56117  Biso   1.000  P
  Se1      1.0000 0.31569  0.98238  0.41022  Biso   1.000  Se
  Se2      1.0000 0.01793  0.33329  0.41032  Biso   1.000  Se
  Se3      1.0000 0.66664  0.68431  0.41024  Biso   1.000  Se
  Se4      1.0000 0.01831  0.68497  0.58968  Biso   1.000  Se
  Se5      1.0000 0.31475  0.33340  0.58958  Biso   1.000  Se
  Se6      1.0000 0.66670  0.98171  0.58966  Biso   1.000  Se
