data_image0
_cell_length_a       5.95057
_cell_length_b       5.95232
_cell_length_c       18.4116
_cell_angle_alpha    90
_cell_angle_beta     90
_cell_angle_gamma    119.99

_symmetry_space_group_name_H-M    "P 1"
_symmetry_int_tables_number       1

loop_
  _symmetry_equiv_pos_as_xyz
  'x, y, z'

loop_
  _atom_site_label
  _atom_site_occupancy
  _atom_site_fract_x
  _atom_site_fract_y
  _atom_site_fract_z
  _atom_site_thermal_displace_type
  _atom_site_B_iso_or_equiv
  _atom_site_type_symbol
  Ti1      1.0000 0.99995  0.99987  0.50001  Biso   1.000  Ti
  Ti2      1.0000 0.33339  0.66681  0.50000  Biso   1.000  Ti
  P1       1.0000 0.66671  0.33335  0.43971  Biso   1.000  P
  P2       1.0000 0.66663  0.33333  0.56030  Biso   1.000  P
  S1       1.0000 0.32621  0.99288  0.41469  Biso   1.000  S
  S2       1.0000 0.00721  0.33331  0.41470  Biso   1.000  S
  S3       1.0000 0.66666  0.67378  0.41470  Biso   1.000  S
  S4       1.0000 0.00712  0.67379  0.58531  Biso   1.000  S
  S5       1.0000 0.32614  0.33337  0.58530  Biso   1.000  S
  S6       1.0000 0.66668  0.99291  0.58531  Biso   1.000  S
