data_image0
_cell_length_a       3.41334
_cell_length_b       3.41375
_cell_length_c       20.1887
_cell_angle_alpha    90
_cell_angle_beta     90
_cell_angle_gamma    119.996

_symmetry_space_group_name_H-M    "P 1"
_symmetry_int_tables_number       1

loop_
  _symmetry_equiv_pos_as_xyz
  'x, y, z'

loop_
  _atom_site_label
  _atom_site_occupancy
  _atom_site_fract_x
  _atom_site_fract_y
  _atom_site_fract_z
  _atom_site_thermal_displace_type
  _atom_site_B_iso_or_equiv
  _atom_site_type_symbol
  Ti1      1.0000 0.33337  0.66667  0.56527  Biso   1.000  Ti
  S1       1.0000 0.66678  0.33345  0.37134  Biso   1.000  S
  S2       1.0000 0.00002  0.00015  0.62866  Biso   1.000  S
  Ti2      1.0000 0.33336  0.66681  0.43473  Biso   1.000  Ti
