data_image0
_cell_length_a       3.41902
_cell_length_b       3.41902
_cell_length_c       20.1887
_cell_angle_alpha    90
_cell_angle_beta     90
_cell_angle_gamma    120

_symmetry_space_group_name_H-M    "P 1"
_symmetry_int_tables_number       1

loop_
  _symmetry_equiv_pos_as_xyz
  'x, y, z'

loop_
  _atom_site_label
  _atom_site_occupancy
  _atom_site_fract_x
  _atom_site_fract_y
  _atom_site_fract_z
  _atom_site_thermal_displace_type
  _atom_site_B_iso_or_equiv
  _atom_site_type_symbol
  Ti1      1.0000 0.33342  0.66675  0.56597  Biso   1.000  Ti
  S1       1.0000 0.66673  0.33334  0.37150  Biso   1.000  S
  S2       1.0000 0.99997  0.00007  0.62850  Biso   1.000  S
  Ti2      1.0000 0.33341  0.66691  0.43403  Biso   1.000  Ti
