data_image0
_cell_length_a       3.88485
_cell_length_b       3.8876
_cell_length_c       17.7875
_cell_angle_alpha    90
_cell_angle_beta     90
_cell_angle_gamma    90

_symmetry_space_group_name_H-M    "P 1"
_symmetry_int_tables_number       1

loop_
  _symmetry_equiv_pos_as_xyz
  'x, y, z'

loop_
  _atom_site_label
  _atom_site_occupancy
  _atom_site_fract_x
  _atom_site_fract_y
  _atom_site_fract_z
  _atom_site_thermal_displace_type
  _atom_site_B_iso_or_equiv
  _atom_site_type_symbol
  Ti1      1.0000 0.00000  0.99998  0.50000  Biso   1.000  Ti
  Se1      1.0000 1.00000  0.49938  0.59854  Biso   1.000  Se
  Ti2      1.0000 0.50000  0.49993  0.50000  Biso   1.000  Ti
  Se2      1.0000 1.00000  0.50050  0.40146  Biso   1.000  Se
