data_image0
_cell_length_a       5.03077
_cell_length_b       3.41871
_cell_length_c       20.6891
_cell_angle_alpha    90
_cell_angle_beta     90
_cell_angle_gamma    90

_symmetry_space_group_name_H-M    "P 1"
_symmetry_int_tables_number       1

loop_
  _symmetry_equiv_pos_as_xyz
  'x, y, z'

loop_
  _atom_site_label
  _atom_site_occupancy
  _atom_site_fract_x
  _atom_site_fract_y
  _atom_site_fract_z
  _atom_site_thermal_displace_type
  _atom_site_B_iso_or_equiv
  _atom_site_type_symbol
  Ti1      1.0000 0.63166  0.25000  0.56477  Biso   1.000  Ti
  Ti2      1.0000 0.13156  0.75000  0.43523  Biso   1.000  Ti
  S1       1.0000 0.13164  0.25000  0.52127  Biso   1.000  S
  S2       1.0000 0.63158  0.75000  0.47873  Biso   1.000  S
  S3       1.0000 0.33561  0.25000  0.36241  Biso   1.000  S
  S4       1.0000 0.42761  0.75000  0.63759  Biso   1.000  S
  S5       1.0000 0.92728  0.25000  0.36247  Biso   1.000  S
  S6       1.0000 0.83594  0.75000  0.63753  Biso   1.000  S
