data_image0
_cell_length_a       3.50581
_cell_length_b       3.50581
_cell_length_c       20.4856
_cell_angle_alpha    90
_cell_angle_beta     90
_cell_angle_gamma    120

_symmetry_space_group_name_H-M    "P 1"
_symmetry_int_tables_number       1

loop_
  _symmetry_equiv_pos_as_xyz
  'x, y, z'

loop_
  _atom_site_label
  _atom_site_occupancy
  _atom_site_fract_x
  _atom_site_fract_y
  _atom_site_fract_z
  _atom_site_thermal_displace_type
  _atom_site_B_iso_or_equiv
  _atom_site_type_symbol
  Ti1      1.0000 0.33339  0.66670  0.56335  Biso   1.000  Ti
  Se1      1.0000 0.66675  0.33337  0.36613  Biso   1.000  Se
  Se2      1.0000 0.00000  0.00014  0.63387  Biso   1.000  Se
  Ti2      1.0000 0.33339  0.66688  0.43665  Biso   1.000  Ti
