data_image0
_cell_length_a       4.2076
_cell_length_b       4.21172
_cell_length_c       18.8558
_cell_angle_alpha    90
_cell_angle_beta     90
_cell_angle_gamma    119.968

_symmetry_space_group_name_H-M    "P 1"
_symmetry_int_tables_number       1

loop_
  _symmetry_equiv_pos_as_xyz
  'x, y, z'

loop_
  _atom_site_label
  _atom_site_occupancy
  _atom_site_fract_x
  _atom_site_fract_y
  _atom_site_fract_z
  _atom_site_thermal_displace_type
  _atom_site_B_iso_or_equiv
  _atom_site_type_symbol
  Te1      1.0000 0.00012  0.00016  0.39081  Biso   1.000  Te
  Te2      1.0000 0.33322  0.66651  0.60926  Biso   1.000  Te
  Ti1      1.0000 0.00004  0.00026  0.54201  Biso   1.000  Ti
  Ti2      1.0000 0.33329  0.66641  0.45806  Biso   1.000  Ti
