data_image0
_cell_length_a       5.92846
_cell_length_b       3.74796
_cell_length_c       21.6187
_cell_angle_alpha    90
_cell_angle_beta     90
_cell_angle_gamma    90

_symmetry_space_group_name_H-M    "P 1"
_symmetry_int_tables_number       1

loop_
  _symmetry_equiv_pos_as_xyz
  'x, y, z'

loop_
  _atom_site_label
  _atom_site_occupancy
  _atom_site_fract_x
  _atom_site_fract_y
  _atom_site_fract_z
  _atom_site_thermal_displace_type
  _atom_site_B_iso_or_equiv
  _atom_site_type_symbol
  Ti1      1.0000 0.63088  0.25000  0.57679  Biso   1.000  Ti
  Ti2      1.0000 0.13235  0.75000  0.42322  Biso   1.000  Ti
  Te1      1.0000 0.13224  0.25000  0.52248  Biso   1.000  Te
  Te2      1.0000 0.63098  0.75000  0.47752  Biso   1.000  Te
  Te3      1.0000 0.36838  0.25000  0.34873  Biso   1.000  Te
  Te4      1.0000 0.39485  0.75000  0.65127  Biso   1.000  Te
  Te5      1.0000 0.89454  0.25000  0.34940  Biso   1.000  Te
  Te6      1.0000 0.86869  0.75000  0.65060  Biso   1.000  Te
