data_image0
_cell_length_a       3.57928
_cell_length_b       3.57928
_cell_length_c       20.8817
_cell_angle_alpha    90
_cell_angle_beta     90
_cell_angle_gamma    120

_symmetry_space_group_name_H-M    "P 1"
_symmetry_int_tables_number       1

loop_
  _symmetry_equiv_pos_as_xyz
  'x, y, z'

loop_
  _atom_site_label
  _atom_site_occupancy
  _atom_site_fract_x
  _atom_site_fract_y
  _atom_site_fract_z
  _atom_site_thermal_displace_type
  _atom_site_B_iso_or_equiv
  _atom_site_type_symbol
  Ti1      1.0000 0.33343  0.66679  0.55730  Biso   1.000  Ti
  Te1      1.0000 0.66672  0.33335  0.35917  Biso   1.000  Te
  Te2      1.0000 0.00001  0.00012  0.64083  Biso   1.000  Te
  Ti2      1.0000 0.33350  0.66705  0.44270  Biso   1.000  Ti
