data_image0
_cell_length_a       7.21574
_cell_length_b       6.23307
_cell_length_c       18.4369
_cell_angle_alpha    90
_cell_angle_beta     90
_cell_angle_gamma    90

_symmetry_space_group_name_H-M    "P 1"
_symmetry_int_tables_number       1

loop_
  _symmetry_equiv_pos_as_xyz
  'x, y, z'

loop_
  _atom_site_label
  _atom_site_occupancy
  _atom_site_fract_x
  _atom_site_fract_y
  _atom_site_fract_z
  _atom_site_thermal_displace_type
  _atom_site_B_iso_or_equiv
  _atom_site_type_symbol
  Ti1      1.0000 0.00090  0.00257  0.49333  Biso   1.000  Ti
  Ti2      1.0000 0.50087  0.00252  0.50831  Biso   1.000  Ti
  Zr1      1.0000 0.25081  0.49837  0.49954  Biso   1.000  Zr
  Zr2      1.0000 0.75071  0.49823  0.49955  Biso   1.000  Zr
  Se1      1.0000 0.00095  0.32723  0.40679  Biso   1.000  Se
  Se2      1.0000 0.24768  0.84498  0.58860  Biso   1.000  Se
  Se3      1.0000 0.00067  0.31902  0.58907  Biso   1.000  Se
  Se4      1.0000 0.25406  0.84606  0.41215  Biso   1.000  Se
  Se5      1.0000 0.50090  0.31800  0.41087  Biso   1.000  Se
  Se6      1.0000 0.75375  0.84485  0.58861  Biso   1.000  Se
  Se7      1.0000 0.50062  0.32864  0.59321  Biso   1.000  Se
  Se8      1.0000 0.74805  0.84618  0.41218  Biso   1.000  Se
