data_image0
_cell_length_a       6.94621
_cell_length_b       5.99703
_cell_length_c       18.25
_cell_angle_alpha    90
_cell_angle_beta     90
_cell_angle_gamma    90

_symmetry_space_group_name_H-M    "P 1"
_symmetry_int_tables_number       1

loop_
  _symmetry_equiv_pos_as_xyz
  'x, y, z'

loop_
  _atom_site_label
  _atom_site_occupancy
  _atom_site_fract_x
  _atom_site_fract_y
  _atom_site_fract_z
  _atom_site_thermal_displace_type
  _atom_site_B_iso_or_equiv
  _atom_site_type_symbol
  Ti1      1.0000 0.00089  0.00366  0.48841  Biso   1.000  Ti
  Ti2      1.0000 0.50090  0.00358  0.51176  Biso   1.000  Ti
  Zr1      1.0000 0.25091  0.49844  0.50010  Biso   1.000  Zr
  Zr2      1.0000 0.75092  0.49842  0.49989  Biso   1.000  Zr
  S1       1.0000 0.00108  0.33016  0.41096  Biso   1.000  S
  S2       1.0000 0.24749  0.84680  0.58301  Biso   1.000  S
  S3       1.0000 0.00077  0.31513  0.58229  Biso   1.000  S
  S4       1.0000 0.25411  0.84658  0.41710  Biso   1.000  S
  S5       1.0000 0.50086  0.31511  0.41772  Biso   1.000  S
  S6       1.0000 0.75429  0.84656  0.58297  Biso   1.000  S
  S7       1.0000 0.50100  0.33023  0.58904  Biso   1.000  S
  S8       1.0000 0.74751  0.84687  0.41708  Biso   1.000  S
