data_image0
_cell_length_a       7.682
_cell_length_b       6.62499
_cell_length_c       18.7143
_cell_angle_alpha    90
_cell_angle_beta     90
_cell_angle_gamma    90

_symmetry_space_group_name_H-M    "P 1"
_symmetry_int_tables_number       1

loop_
  _symmetry_equiv_pos_as_xyz
  'x, y, z'

loop_
  _atom_site_label
  _atom_site_occupancy
  _atom_site_fract_x
  _atom_site_fract_y
  _atom_site_fract_z
  _atom_site_thermal_displace_type
  _atom_site_B_iso_or_equiv
  _atom_site_type_symbol
  Ti1      1.0000 0.00081  0.00184  0.49978  Biso   1.000  Ti
  Ti2      1.0000 0.50100  0.00209  0.50008  Biso   1.000  Ti
  Zr1      1.0000 0.25081  0.49828  0.50001  Biso   1.000  Zr
  Zr2      1.0000 0.75085  0.49826  0.50003  Biso   1.000  Zr
  Te1      1.0000 0.00080  0.32501  0.40076  Biso   1.000  Te
  Te2      1.0000 0.25093  0.84467  0.59583  Biso   1.000  Te
  Te3      1.0000 0.00076  0.32472  0.59912  Biso   1.000  Te
  Te4      1.0000 0.25104  0.84454  0.40407  Biso   1.000  Te
  Te5      1.0000 0.50085  0.32518  0.40083  Biso   1.000  Te
  Te6      1.0000 0.75104  0.84452  0.59590  Biso   1.000  Te
  Te7      1.0000 0.50080  0.32520  0.59924  Biso   1.000  Te
  Te8      1.0000 0.75064  0.84451  0.40405  Biso   1.000  Te
