data_image0
_cell_length_a       6.81535
_cell_length_b       5.90174
_cell_length_c       18.1593
_cell_angle_alpha    90
_cell_angle_beta     90
_cell_angle_gamma    90

_symmetry_space_group_name_H-M    "P 1"
_symmetry_int_tables_number       1

loop_
  _symmetry_equiv_pos_as_xyz
  'x, y, z'

loop_
  _atom_site_label
  _atom_site_occupancy
  _atom_site_fract_x
  _atom_site_fract_y
  _atom_site_fract_z
  _atom_site_thermal_displace_type
  _atom_site_B_iso_or_equiv
  _atom_site_type_symbol
  Ti1      1.0000 0.00542  0.00286  0.49103  Biso   1.000  Ti
  Ti2      1.0000 0.49882  0.00255  0.50801  Biso   1.000  Ti
  Ti3      1.0000 0.25226  0.49810  0.49179  Biso   1.000  Ti
  Zr1      1.0000 0.75250  0.50241  0.50872  Biso   1.000  Zr
  S1       1.0000 0.00534  0.33651  0.41301  Biso   1.000  S
  S2       1.0000 0.24684  0.82433  0.57916  Biso   1.000  S
  S3       1.0000 0.01930  0.31940  0.58183  Biso   1.000  S
  S4       1.0000 0.25760  0.83711  0.41499  Biso   1.000  S
  S5       1.0000 0.49916  0.32613  0.41805  Biso   1.000  S
  S6       1.0000 0.75484  0.85770  0.58656  Biso   1.000  S
  S7       1.0000 0.48487  0.33034  0.58698  Biso   1.000  S
  S8       1.0000 0.74892  0.84574  0.41831  Biso   1.000  S
