data_image0
_cell_length_a       7.10366
_cell_length_b       6.14195
_cell_length_c       18.3429
_cell_angle_alpha    90
_cell_angle_beta     90
_cell_angle_gamma    90

_symmetry_space_group_name_H-M    "P 1"
_symmetry_int_tables_number       1

loop_
  _symmetry_equiv_pos_as_xyz
  'x, y, z'

loop_
  _atom_site_label
  _atom_site_occupancy
  _atom_site_fract_x
  _atom_site_fract_y
  _atom_site_fract_z
  _atom_site_thermal_displace_type
  _atom_site_B_iso_or_equiv
  _atom_site_type_symbol
  Ti1      1.0000 0.00320  0.00162  0.49713  Biso   1.000  Ti
  Ti2      1.0000 0.49831  0.00153  0.50512  Biso   1.000  Ti
  Ti3      1.0000 0.25068  0.49737  0.49873  Biso   1.000  Ti
  Zr1      1.0000 0.75067  0.50117  0.49997  Biso   1.000  Zr
  Se1      1.0000 0.01002  0.33020  0.40888  Biso   1.000  Se
  Se2      1.0000 0.24792  0.82906  0.58766  Biso   1.000  Se
  Se3      1.0000 0.00997  0.32589  0.58886  Biso   1.000  Se
  Se4      1.0000 0.25361  0.83173  0.41296  Biso   1.000  Se
  Se5      1.0000 0.49201  0.32527  0.41113  Biso   1.000  Se
  Se6      1.0000 0.75200  0.84839  0.59031  Biso   1.000  Se
  Se7      1.0000 0.49073  0.33095  0.59112  Biso   1.000  Se
  Se8      1.0000 0.74971  0.85015  0.41108  Biso   1.000  Se
