data_image0
_cell_length_a       6.83452
_cell_length_b       6.86709
_cell_length_c       18.6177
_cell_angle_alpha    90
_cell_angle_beta     90
_cell_angle_gamma    119.843

_symmetry_space_group_name_H-M    "P 1"
_symmetry_int_tables_number       1

loop_
  _symmetry_equiv_pos_as_xyz
  'x, y, z'

loop_
  _atom_site_label
  _atom_site_occupancy
  _atom_site_fract_x
  _atom_site_fract_y
  _atom_site_fract_z
  _atom_site_thermal_displace_type
  _atom_site_B_iso_or_equiv
  _atom_site_type_symbol
  Ti1      1.0000 0.00047  0.99912  0.49918  Biso   1.000  Ti
  S1       1.0000 0.33195  0.16861  0.57387  Biso   1.000  S
  Br1      1.0000 0.33424  0.16561  0.40225  Biso   1.000  Br
  Ti2      1.0000 0.00047  0.49912  0.50082  Biso   1.000  Ti
  Br2      1.0000 0.33424  0.66561  0.59775  Biso   1.000  Br
  S2       1.0000 0.33195  0.66861  0.42613  Biso   1.000  S
  Ti3      1.0000 0.50047  0.99912  0.50082  Biso   1.000  Ti
  Br3      1.0000 0.83424  0.16561  0.59775  Biso   1.000  Br
  S3       1.0000 0.83195  0.16861  0.42613  Biso   1.000  S
  Ti4      1.0000 0.50047  0.49912  0.49918  Biso   1.000  Ti
  S4       1.0000 0.83195  0.66861  0.57387  Biso   1.000  S
  Br4      1.0000 0.83424  0.66561  0.40225  Biso   1.000  Br
