data_image0
_cell_length_a       7.0233
_cell_length_b       7.03253
_cell_length_c       18.4798
_cell_angle_alpha    90
_cell_angle_beta     90
_cell_angle_gamma    119.957

_symmetry_space_group_name_H-M    "P 1"
_symmetry_int_tables_number       1

loop_
  _symmetry_equiv_pos_as_xyz
  'x, y, z'

loop_
  _atom_site_label
  _atom_site_occupancy
  _atom_site_fract_x
  _atom_site_fract_y
  _atom_site_fract_z
  _atom_site_thermal_displace_type
  _atom_site_B_iso_or_equiv
  _atom_site_type_symbol
  Ti1      1.0000 0.00029  0.99961  0.49963  Biso   1.000  Ti
  Se1      1.0000 0.33203  0.16811  0.58403  Biso   1.000  Se
  Br1      1.0000 0.33435  0.16562  0.40512  Biso   1.000  Br
  Ti2      1.0000 0.00029  0.49961  0.50037  Biso   1.000  Ti
  Br2      1.0000 0.33435  0.66562  0.59488  Biso   1.000  Br
  Se2      1.0000 0.33203  0.66811  0.41597  Biso   1.000  Se
  Ti3      1.0000 0.50029  0.99961  0.50037  Biso   1.000  Ti
  Br3      1.0000 0.83435  0.16562  0.59488  Biso   1.000  Br
  Se3      1.0000 0.83203  0.16811  0.41597  Biso   1.000  Se
  Ti4      1.0000 0.50029  0.49961  0.49963  Biso   1.000  Ti
  Se4      1.0000 0.83203  0.66811  0.58403  Biso   1.000  Se
  Br4      1.0000 0.83435  0.66562  0.40512  Biso   1.000  Br
