data_image0
_cell_length_a       6.68787
_cell_length_b       6.69745
_cell_length_c       18.2539
_cell_angle_alpha    90
_cell_angle_beta     90
_cell_angle_gamma    119.953

_symmetry_space_group_name_H-M    "P 1"
_symmetry_int_tables_number       1

loop_
  _symmetry_equiv_pos_as_xyz
  'x, y, z'

loop_
  _atom_site_label
  _atom_site_occupancy
  _atom_site_fract_x
  _atom_site_fract_y
  _atom_site_fract_z
  _atom_site_thermal_displace_type
  _atom_site_B_iso_or_equiv
  _atom_site_type_symbol
  Ti1      1.0000 0.00049  0.99939  0.49949  Biso   1.000  Ti
  S1       1.0000 0.33164  0.16852  0.57878  Biso   1.000  S
  Cl1      1.0000 0.33453  0.16542  0.41016  Biso   1.000  Cl
  Ti2      1.0000 0.00049  0.49939  0.50051  Biso   1.000  Ti
  Cl2      1.0000 0.33453  0.66542  0.58984  Biso   1.000  Cl
  S2       1.0000 0.33164  0.66852  0.42122  Biso   1.000  S
  Ti3      1.0000 0.50049  0.99939  0.50051  Biso   1.000  Ti
  Cl3      1.0000 0.83453  0.16542  0.58984  Biso   1.000  Cl
  S3       1.0000 0.83164  0.16852  0.42122  Biso   1.000  S
  Ti4      1.0000 0.50049  0.49939  0.49949  Biso   1.000  Ti
  S4       1.0000 0.83164  0.66852  0.57878  Biso   1.000  S
  Cl4      1.0000 0.83453  0.66542  0.41016  Biso   1.000  Cl
