data_image0
_cell_length_a       7.00096
_cell_length_b       7.12686
_cell_length_c       19.0732
_cell_angle_alpha    90
_cell_angle_beta     90
_cell_angle_gamma    119.417

_symmetry_space_group_name_H-M    "P 1"
_symmetry_int_tables_number       1

loop_
  _symmetry_equiv_pos_as_xyz
  'x, y, z'

loop_
  _atom_site_label
  _atom_site_occupancy
  _atom_site_fract_x
  _atom_site_fract_y
  _atom_site_fract_z
  _atom_site_thermal_displace_type
  _atom_site_B_iso_or_equiv
  _atom_site_type_symbol
  Ti1      1.0000 0.00026  0.99804  0.49885  Biso   1.000  Ti
  S1       1.0000 0.33268  0.16934  0.56739  Biso   1.000  S
  I1       1.0000 0.33372  0.16596  0.39239  Biso   1.000  I
  Ti2      1.0000 0.00026  0.49804  0.50115  Biso   1.000  Ti
  I2       1.0000 0.33372  0.66596  0.60761  Biso   1.000  I
  S2       1.0000 0.33268  0.66934  0.43261  Biso   1.000  S
  Ti3      1.0000 0.50026  0.99804  0.50115  Biso   1.000  Ti
  I3       1.0000 0.83372  0.16596  0.60761  Biso   1.000  I
  S3       1.0000 0.83268  0.16934  0.43261  Biso   1.000  S
  Ti4      1.0000 0.50026  0.49804  0.49885  Biso   1.000  Ti
  S4       1.0000 0.83268  0.66934  0.56739  Biso   1.000  S
  I4       1.0000 0.83372  0.66596  0.39239  Biso   1.000  I
