data_image0
_cell_length_a       7.23542
_cell_length_b       7.29934
_cell_length_c       18.9271
_cell_angle_alpha    90
_cell_angle_beta     90
_cell_angle_gamma    119.711

_symmetry_space_group_name_H-M    "P 1"
_symmetry_int_tables_number       1

loop_
  _symmetry_equiv_pos_as_xyz
  'x, y, z'

loop_
  _atom_site_label
  _atom_site_occupancy
  _atom_site_fract_x
  _atom_site_fract_y
  _atom_site_fract_z
  _atom_site_thermal_displace_type
  _atom_site_B_iso_or_equiv
  _atom_site_type_symbol
  Ti1      1.0000 0.00021  0.99901  0.49920  Biso   1.000  Ti
  Se1      1.0000 0.33248  0.16846  0.57748  Biso   1.000  Se
  I1       1.0000 0.33398  0.16587  0.39539  Biso   1.000  I
  Ti2      1.0000 0.00021  0.49901  0.50080  Biso   1.000  Ti
  I2       1.0000 0.33398  0.66587  0.60461  Biso   1.000  I
  Se2      1.0000 0.33248  0.66846  0.42252  Biso   1.000  Se
  Ti3      1.0000 0.50021  0.99901  0.50080  Biso   1.000  Ti
  I3       1.0000 0.83398  0.16587  0.60461  Biso   1.000  I
  Se3      1.0000 0.83248  0.16846  0.42252  Biso   1.000  Se
  Ti4      1.0000 0.50021  0.49901  0.49920  Biso   1.000  Ti
  Se4      1.0000 0.83248  0.66846  0.57748  Biso   1.000  Se
  I4       1.0000 0.83398  0.66587  0.39539  Biso   1.000  I
