data_image0
_cell_length_a       7.0337
_cell_length_b       6.09789
_cell_length_c       18.2336
_cell_angle_alpha    90
_cell_angle_beta     90
_cell_angle_gamma    90

_symmetry_space_group_name_H-M    "P 1"
_symmetry_int_tables_number       1

loop_
  _symmetry_equiv_pos_as_xyz
  'x, y, z'

loop_
  _atom_site_label
  _atom_site_occupancy
  _atom_site_fract_x
  _atom_site_fract_y
  _atom_site_fract_z
  _atom_site_thermal_displace_type
  _atom_site_B_iso_or_equiv
  _atom_site_type_symbol
  Ti1      1.0000 0.00169  0.99991  0.49000  Biso   1.000  Ti
  Zr1      1.0000 0.50245  0.00325  0.50876  Biso   1.000  Zr
  Zr2      1.0000 0.24842  0.49983  0.51061  Biso   1.000  Zr
  Zr3      1.0000 0.75421  0.50029  0.48750  Biso   1.000  Zr
  S1       1.0000 0.01205  0.32434  0.41166  Biso   1.000  S
  S2       1.0000 0.23858  0.84622  0.58759  Biso   1.000  S
  S3       1.0000 0.99105  0.31088  0.58071  Biso   1.000  S
  S4       1.0000 0.24612  0.83354  0.41859  Biso   1.000  S
  S5       1.0000 0.49079  0.33105  0.41536  Biso   1.000  S
  S6       1.0000 0.76865  0.82788  0.58002  Biso   1.000  S
  S7       1.0000 0.51216  0.34390  0.58867  Biso   1.000  S
  S8       1.0000 0.75459  0.85172  0.41133  Biso   1.000  S
