data_image0
_cell_length_a       7.3094
_cell_length_b       6.3254
_cell_length_c       18.4529
_cell_angle_alpha    90
_cell_angle_beta     90
_cell_angle_gamma    90

_symmetry_space_group_name_H-M    "P 1"
_symmetry_int_tables_number       1

loop_
  _symmetry_equiv_pos_as_xyz
  'x, y, z'

loop_
  _atom_site_label
  _atom_site_occupancy
  _atom_site_fract_x
  _atom_site_fract_y
  _atom_site_fract_z
  _atom_site_thermal_displace_type
  _atom_site_B_iso_or_equiv
  _atom_site_type_symbol
  Ti1      1.0000 0.00083  0.00039  0.49149  Biso   1.000  Ti
  Zr1      1.0000 0.50085  0.00343  0.50759  Biso   1.000  Zr
  Zr2      1.0000 0.24871  0.49988  0.49848  Biso   1.000  Zr
  Zr3      1.0000 0.75308  0.49986  0.49860  Biso   1.000  Zr
  Se1      1.0000 0.00078  0.32540  0.40644  Biso   1.000  Se
  Se2      1.0000 0.23732  0.83687  0.58907  Biso   1.000  Se
  Se3      1.0000 0.00115  0.31501  0.58647  Biso   1.000  Se
  Se4      1.0000 0.24668  0.84206  0.40960  Biso   1.000  Se
  Se5      1.0000 0.50087  0.33147  0.40891  Biso   1.000  Se
  Se6      1.0000 0.76446  0.83699  0.58908  Biso   1.000  Se
  Se7      1.0000 0.50110  0.34360  0.59356  Biso   1.000  Se
  Se8      1.0000 0.75472  0.84193  0.40961  Biso   1.000  Se
