data_image0
_cell_length_a       5.37789
_cell_length_b       5.77384
_cell_length_c       18.8558
_cell_angle_alpha    90
_cell_angle_beta     90
_cell_angle_gamma    117.756

_symmetry_space_group_name_H-M    "P 1"
_symmetry_int_tables_number       1

loop_
  _symmetry_equiv_pos_as_xyz
  'x, y, z'

loop_
  _atom_site_label
  _atom_site_occupancy
  _atom_site_fract_x
  _atom_site_fract_y
  _atom_site_fract_z
  _atom_site_thermal_displace_type
  _atom_site_B_iso_or_equiv
  _atom_site_type_symbol
  Br1      1.0000 0.00675  0.01228  0.42503  Biso   1.000  Br
  Br2      1.0000 0.32637  0.65450  0.57962  Biso   1.000  Br
  Tl1      1.0000 0.00307  0.00720  0.58993  Biso   1.000  Tl
  Tl2      1.0000 0.33010  0.65960  0.41477  Biso   1.000  Tl
