data_image0
_cell_length_a       7.10236
_cell_length_b       7.10236
_cell_length_c       18.3626
_cell_angle_alpha    90
_cell_angle_beta     90
_cell_angle_gamma    120

_symmetry_space_group_name_H-M    "P 1"
_symmetry_int_tables_number       1

loop_
  _symmetry_equiv_pos_as_xyz
  'x, y, z'

loop_
  _atom_site_label
  _atom_site_occupancy
  _atom_site_fract_x
  _atom_site_fract_y
  _atom_site_fract_z
  _atom_site_thermal_displace_type
  _atom_site_B_iso_or_equiv
  _atom_site_type_symbol
  Tl1      1.0000 0.66667  0.33333  0.50002  Biso   1.000  Tl
  Tl2      1.0000 0.33333  0.66667  0.49998  Biso   1.000  Tl
  Cl1      1.0000 0.47988  0.99998  0.40828  Biso   1.000  Cl
  Cl2      1.0000 0.52010  0.52012  0.40828  Biso   1.000  Cl
  Cl3      1.0000 0.00002  0.47990  0.40828  Biso   1.000  Cl
  Cl4      1.0000 0.47990  0.00002  0.59172  Biso   1.000  Cl
  Cl5      1.0000 0.52012  0.52010  0.59172  Biso   1.000  Cl
  Cl6      1.0000 0.99998  0.47988  0.59172  Biso   1.000  Cl
