data_image0
_cell_length_a       5.32115
_cell_length_b       5.4284
_cell_length_c       18.8558
_cell_angle_alpha    90
_cell_angle_beta     90
_cell_angle_gamma    119.349

_symmetry_space_group_name_H-M    "P 1"
_symmetry_int_tables_number       1

loop_
  _symmetry_equiv_pos_as_xyz
  'x, y, z'

loop_
  _atom_site_label
  _atom_site_occupancy
  _atom_site_fract_x
  _atom_site_fract_y
  _atom_site_fract_z
  _atom_site_thermal_displace_type
  _atom_site_B_iso_or_equiv
  _atom_site_type_symbol
  Cl1      1.0000 0.00236  0.00495  0.43083  Biso   1.000  Cl
  Cl2      1.0000 0.33098  0.66171  0.56969  Biso   1.000  Cl
  Tl1      1.0000 0.00080  0.00176  0.58764  Biso   1.000  Tl
  Tl2      1.0000 0.33252  0.66491  0.41291  Biso   1.000  Tl
