data_image0
_cell_length_a       7.5505
_cell_length_b       7.55221
_cell_length_c       18.4116
_cell_angle_alpha    90
_cell_angle_beta     90
_cell_angle_gamma    119.992

_symmetry_space_group_name_H-M    "P 1"
_symmetry_int_tables_number       1

loop_
  _symmetry_equiv_pos_as_xyz
  'x, y, z'

loop_
  _atom_site_label
  _atom_site_occupancy
  _atom_site_fract_x
  _atom_site_fract_y
  _atom_site_fract_z
  _atom_site_thermal_displace_type
  _atom_site_B_iso_or_equiv
  _atom_site_type_symbol
  Tl1      1.0000 0.00006  0.99993  0.50051  Biso   1.000  Tl
  Tl2      1.0000 0.33328  0.66675  0.49952  Biso   1.000  Tl
  P1       1.0000 0.66672  0.33337  0.43724  Biso   1.000  P
  P2       1.0000 0.66661  0.33330  0.56273  Biso   1.000  P
  Te1      1.0000 0.35918  0.02736  0.39505  Biso   1.000  Te
  Te2      1.0000 0.97280  0.33185  0.39511  Biso   1.000  Te
  Te3      1.0000 0.66816  0.64085  0.39509  Biso   1.000  Te
  Te4      1.0000 0.97372  0.63970  0.60496  Biso   1.000  Te
  Te5      1.0000 0.36017  0.33403  0.60490  Biso   1.000  Te
  Te6      1.0000 0.66599  0.02626  0.60492  Biso   1.000  Te
