data_image0
_cell_length_a       7.06009
_cell_length_b       7.06156
_cell_length_c       18.4116
_cell_angle_alpha    90
_cell_angle_beta     90
_cell_angle_gamma    119.993

_symmetry_space_group_name_H-M    "P 1"
_symmetry_int_tables_number       1

loop_
  _symmetry_equiv_pos_as_xyz
  'x, y, z'

loop_
  _atom_site_label
  _atom_site_occupancy
  _atom_site_fract_x
  _atom_site_fract_y
  _atom_site_fract_z
  _atom_site_thermal_displace_type
  _atom_site_B_iso_or_equiv
  _atom_site_type_symbol
  Tl1      1.0000 0.00006  0.99994  0.50034  Biso   1.000  Tl
  Tl2      1.0000 0.33328  0.66674  0.49969  Biso   1.000  Tl
  P1       1.0000 0.66671  0.33336  0.43764  Biso   1.000  P
  P2       1.0000 0.66662  0.33331  0.56234  Biso   1.000  P
  Se1      1.0000 0.36934  0.03713  0.40061  Biso   1.000  Se
  Se2      1.0000 0.96302  0.33223  0.40067  Biso   1.000  Se
  Se3      1.0000 0.66778  0.63069  0.40065  Biso   1.000  Se
  Se4      1.0000 0.96342  0.63008  0.59940  Biso   1.000  Se
  Se5      1.0000 0.36979  0.33334  0.59934  Biso   1.000  Se
  Se6      1.0000 0.66667  0.03656  0.59936  Biso   1.000  Se
