data_image0
_cell_length_a       6.75353
_cell_length_b       6.75502
_cell_length_c       18.4116
_cell_angle_alpha    90
_cell_angle_beta     90
_cell_angle_gamma    119.993

_symmetry_space_group_name_H-M    "P 1"
_symmetry_int_tables_number       1

loop_
  _symmetry_equiv_pos_as_xyz
  'x, y, z'

loop_
  _atom_site_label
  _atom_site_occupancy
  _atom_site_fract_x
  _atom_site_fract_y
  _atom_site_fract_z
  _atom_site_thermal_displace_type
  _atom_site_B_iso_or_equiv
  _atom_site_type_symbol
  Tl1      1.0000 0.00005  0.99994  0.50031  Biso   1.000  Tl
  Tl2      1.0000 0.33329  0.66674  0.49972  Biso   1.000  Tl
  P1       1.0000 0.66671  0.33336  0.43812  Biso   1.000  P
  P2       1.0000 0.66663  0.33332  0.56187  Biso   1.000  P
  S1       1.0000 0.37777  0.04598  0.40481  Biso   1.000  S
  S2       1.0000 0.95417  0.33180  0.40486  Biso   1.000  S
  S3       1.0000 0.66822  0.62227  0.40485  Biso   1.000  S
  S4       1.0000 0.95455  0.62169  0.59520  Biso   1.000  S
  S5       1.0000 0.37817  0.33286  0.59514  Biso   1.000  S
  S6       1.0000 0.66714  0.04543  0.59516  Biso   1.000  S
