data_image0
_cell_length_a       4.06097
_cell_length_b       4.06097
_cell_length_c       20.2777
_cell_angle_alpha    90
_cell_angle_beta     90
_cell_angle_gamma    120

_symmetry_space_group_name_H-M    "P 1"
_symmetry_int_tables_number       1

loop_
  _symmetry_equiv_pos_as_xyz
  'x, y, z'

loop_
  _atom_site_label
  _atom_site_occupancy
  _atom_site_fract_x
  _atom_site_fract_y
  _atom_site_fract_z
  _atom_site_thermal_displace_type
  _atom_site_B_iso_or_equiv
  _atom_site_type_symbol
  Tl1      1.0000 0.33347  0.66683  0.57111  Biso   1.000  Tl
  S1       1.0000 0.66671  0.33337  0.36986  Biso   1.000  S
  S2       1.0000 0.00002  0.00008  0.63014  Biso   1.000  S
  Tl2      1.0000 0.33342  0.66697  0.42889  Biso   1.000  Tl
