data_image0
_cell_length_a       4.22913
_cell_length_b       4.22913
_cell_length_c       20.4629
_cell_angle_alpha    90
_cell_angle_beta     90
_cell_angle_gamma    120

_symmetry_space_group_name_H-M    "P 1"
_symmetry_int_tables_number       1

loop_
  _symmetry_equiv_pos_as_xyz
  'x, y, z'

loop_
  _atom_site_label
  _atom_site_occupancy
  _atom_site_fract_x
  _atom_site_fract_y
  _atom_site_fract_z
  _atom_site_thermal_displace_type
  _atom_site_B_iso_or_equiv
  _atom_site_type_symbol
  Tl1      1.0000 0.33347  0.66687  0.57073  Biso   1.000  Tl
  Se1      1.0000 0.66669  0.33339  0.36652  Biso   1.000  Se
  Se2      1.0000 0.00004  0.00007  0.63348  Biso   1.000  Se
  Tl2      1.0000 0.33346  0.66699  0.42927  Biso   1.000  Tl
