data_image0
_cell_length_a       4.95309
_cell_length_b       4.96213
_cell_length_c       18.8558
_cell_angle_alpha    90
_cell_angle_beta     90
_cell_angle_gamma    119.94

_symmetry_space_group_name_H-M    "P 1"
_symmetry_int_tables_number       1

loop_
  _symmetry_equiv_pos_as_xyz
  'x, y, z'

loop_
  _atom_site_label
  _atom_site_occupancy
  _atom_site_fract_x
  _atom_site_fract_y
  _atom_site_fract_z
  _atom_site_thermal_displace_type
  _atom_site_B_iso_or_equiv
  _atom_site_type_symbol
  Se1      1.0000 0.00015  0.00032  0.40942  Biso   1.000  Se
  Se2      1.0000 0.33319  0.66635  0.59065  Biso   1.000  Se
  Tl1      1.0000 0.00017  0.00065  0.56690  Biso   1.000  Tl
  Tl2      1.0000 0.33316  0.66602  0.43317  Biso   1.000  Tl
