data_image0
_cell_length_a       6.01629
_cell_length_b       6.64713
_cell_length_c       16.3589
_cell_angle_alpha    90
_cell_angle_beta     90
_cell_angle_gamma    90

_symmetry_space_group_name_H-M    "P 1"
_symmetry_int_tables_number       1

loop_
  _symmetry_equiv_pos_as_xyz
  'x, y, z'

loop_
  _atom_site_label
  _atom_site_occupancy
  _atom_site_fract_x
  _atom_site_fract_y
  _atom_site_fract_z
  _atom_site_thermal_displace_type
  _atom_site_B_iso_or_equiv
  _atom_site_type_symbol
  Tl1      1.0000 0.50000  1.00000  0.50000  Biso   1.000  Tl
  Tl2      1.0000 1.00000  0.50000  0.50000  Biso   1.000  Tl
  S1       1.0000 0.99979  0.08143  0.44766  Biso   1.000  S
  S2       1.0000 0.49931  0.41877  0.55240  Biso   1.000  S
  S3       1.0000 0.00021  0.91857  0.55234  Biso   1.000  S
  S4       1.0000 0.50069  0.58123  0.44760  Biso   1.000  S
