data_image0
_cell_length_a       6.18036
_cell_length_b       6.86856
_cell_length_c       16.6115
_cell_angle_alpha    90
_cell_angle_beta     90
_cell_angle_gamma    90

_symmetry_space_group_name_H-M    "P 1"
_symmetry_int_tables_number       1

loop_
  _symmetry_equiv_pos_as_xyz
  'x, y, z'

loop_
  _atom_site_label
  _atom_site_occupancy
  _atom_site_fract_x
  _atom_site_fract_y
  _atom_site_fract_z
  _atom_site_thermal_displace_type
  _atom_site_B_iso_or_equiv
  _atom_site_type_symbol
  Tl1      1.0000 0.50000  0.00000  0.50000  Biso   1.000  Tl
  Tl2      1.0000 0.00000  0.50000  0.50000  Biso   1.000  Tl
  Te1      1.0000 0.00012  0.06799  0.42314  Biso   1.000  Te
  Te2      1.0000 0.50013  0.43202  0.57686  Biso   1.000  Te
  Te3      1.0000 0.99988  0.93201  0.57686  Biso   1.000  Te
  Te4      1.0000 0.49987  0.56798  0.42314  Biso   1.000  Te
