data_image0
_cell_length_a       4.51976
_cell_length_b       4.51976
_cell_length_c       20.6581
_cell_angle_alpha    90
_cell_angle_beta     90
_cell_angle_gamma    120

_symmetry_space_group_name_H-M    "P 1"
_symmetry_int_tables_number       1

loop_
  _symmetry_equiv_pos_as_xyz
  'x, y, z'

loop_
  _atom_site_label
  _atom_site_occupancy
  _atom_site_fract_x
  _atom_site_fract_y
  _atom_site_fract_z
  _atom_site_thermal_displace_type
  _atom_site_B_iso_or_equiv
  _atom_site_type_symbol
  Tl1      1.0000 0.33348  0.66685  0.57019  Biso   1.000  Tl
  Te1      1.0000 0.66672  0.33338  0.36305  Biso   1.000  Te
  Te2      1.0000 0.00002  0.00009  0.63695  Biso   1.000  Te
  Tl2      1.0000 0.33344  0.66700  0.42981  Biso   1.000  Tl
