data_image0
_cell_length_a       3.83232
_cell_length_b       6.3788
_cell_length_c       18.606
_cell_angle_alpha    90
_cell_angle_beta     90
_cell_angle_gamma    90

_symmetry_space_group_name_H-M    "P 1"
_symmetry_int_tables_number       1

loop_
  _symmetry_equiv_pos_as_xyz
  'x, y, z'

loop_
  _atom_site_label
  _atom_site_occupancy
  _atom_site_fract_x
  _atom_site_fract_y
  _atom_site_fract_z
  _atom_site_thermal_displace_type
  _atom_site_B_iso_or_equiv
  _atom_site_type_symbol
  V1       1.0000 1.00000  0.00264  0.50003  Biso   1.000  V
  Br1      1.0000 0.50000  0.16345  0.58070  Biso   1.000  Br
  Br2      1.0000 0.00000  0.34152  0.41929  Biso   1.000  Br
  V2       1.0000 0.50000  0.50233  0.49995  Biso   1.000  V
  Br3      1.0000 0.00000  0.66343  0.58060  Biso   1.000  Br
  Br4      1.0000 0.50000  0.84154  0.41939  Biso   1.000  Br
