data_image0
_cell_length_a       3.86821
_cell_length_b       3.43037
_cell_length_c       21.3418
_cell_angle_alpha    90
_cell_angle_beta     90
_cell_angle_gamma    90

_symmetry_space_group_name_H-M    "P 1"
_symmetry_int_tables_number       1

loop_
  _symmetry_equiv_pos_as_xyz
  'x, y, z'

loop_
  _atom_site_label
  _atom_site_occupancy
  _atom_site_fract_x
  _atom_site_fract_y
  _atom_site_fract_z
  _atom_site_thermal_displace_type
  _atom_site_B_iso_or_equiv
  _atom_site_type_symbol
  V1       1.0000 0.50000  1.00000  0.46119  Biso   1.000  V
  V2       1.0000 0.00000  0.50000  0.53881  Biso   1.000  V
  O1       1.0000 0.50000  0.50000  0.51961  Biso   1.000  O
  O2       1.0000 0.00000  0.00000  0.48038  Biso   1.000  O
  Br1      1.0000 0.50000  0.50000  0.37440  Biso   1.000  Br
  Br2      1.0000 0.00000  0.00000  0.62559  Biso   1.000  Br
