data_image0
_cell_length_a       6.91347
_cell_length_b       6.91347
_cell_length_c       18.1731
_cell_angle_alpha    90
_cell_angle_beta     90
_cell_angle_gamma    120

_symmetry_space_group_name_H-M    "P 1"
_symmetry_int_tables_number       1

loop_
  _symmetry_equiv_pos_as_xyz
  'x, y, z'

loop_
  _atom_site_label
  _atom_site_occupancy
  _atom_site_fract_x
  _atom_site_fract_y
  _atom_site_fract_z
  _atom_site_thermal_displace_type
  _atom_site_B_iso_or_equiv
  _atom_site_type_symbol
  V1       1.0000 0.66667  0.33333  0.50001  Biso   1.000  V
  V2       1.0000 0.33333  0.66667  0.49999  Biso   1.000  V
  Br1      1.0000 0.47757  0.99999  0.41155  Biso   1.000  Br
  Br2      1.0000 0.52242  0.52243  0.41155  Biso   1.000  Br
  Br3      1.0000 0.00001  0.47758  0.41155  Biso   1.000  Br
  Br4      1.0000 0.47758  0.00002  0.58845  Biso   1.000  Br
  Br5      1.0000 0.52244  0.52242  0.58845  Biso   1.000  Br
  Br6      1.0000 0.99998  0.47756  0.58845  Biso   1.000  Br
