data_image0
_cell_length_a       3.25679
_cell_length_b       5.68441
_cell_length_c       17.662
_cell_angle_alpha    90
_cell_angle_beta     90
_cell_angle_gamma    90

_symmetry_space_group_name_H-M    "P 1"
_symmetry_int_tables_number       1

loop_
  _symmetry_equiv_pos_as_xyz
  'x, y, z'

loop_
  _atom_site_label
  _atom_site_occupancy
  _atom_site_fract_x
  _atom_site_fract_y
  _atom_site_fract_z
  _atom_site_thermal_displace_type
  _atom_site_B_iso_or_equiv
  _atom_site_type_symbol
  V1       1.0000 0.00000  0.05794  0.50374  Biso   1.000  V
  Cl1      1.0000 0.50000  0.17146  0.59434  Biso   1.000  Cl
  Cl2      1.0000 0.00000  0.32855  0.40566  Biso   1.000  Cl
  V2       1.0000 0.50000  0.44207  0.49626  Biso   1.000  V
  Cl3      1.0000 0.00000  0.66813  0.57473  Biso   1.000  Cl
  Cl4      1.0000 0.50000  0.83187  0.42527  Biso   1.000  Cl
