data_image0
_cell_length_a       4.11253
_cell_length_b       6.93627
_cell_length_c       18.1348
_cell_angle_alpha    90
_cell_angle_beta     90
_cell_angle_gamma    90

_symmetry_space_group_name_H-M    "P 1"
_symmetry_int_tables_number       1

loop_
  _symmetry_equiv_pos_as_xyz
  'x, y, z'

loop_
  _atom_site_label
  _atom_site_occupancy
  _atom_site_fract_x
  _atom_site_fract_y
  _atom_site_fract_z
  _atom_site_thermal_displace_type
  _atom_site_B_iso_or_equiv
  _atom_site_type_symbol
  V1       1.0000 0.00000  0.00021  0.49996  Biso   1.000  V
  I1       1.0000 0.50000  0.16267  0.58913  Biso   1.000  I
  I2       1.0000 0.00000  0.33726  0.41087  Biso   1.000  I
  V2       1.0000 0.50000  0.49984  0.49999  Biso   1.000  V
  I3       1.0000 0.00000  0.66273  0.58901  Biso   1.000  I
  I4       1.0000 0.50000  0.83724  0.41104  Biso   1.000  I
