data_image0
_cell_length_a       2.90613
_cell_length_b       5.03385
_cell_length_c       16.9987
_cell_angle_alpha    90
_cell_angle_beta     90
_cell_angle_gamma    90

_symmetry_space_group_name_H-M    "P 1"
_symmetry_int_tables_number       1

loop_
  _symmetry_equiv_pos_as_xyz
  'x, y, z'

loop_
  _atom_site_label
  _atom_site_occupancy
  _atom_site_fract_x
  _atom_site_fract_y
  _atom_site_fract_z
  _atom_site_thermal_displace_type
  _atom_site_B_iso_or_equiv
  _atom_site_type_symbol
  V1       1.0000 0.00000  0.00461  0.48690  Biso   1.000  V
  O1       1.0000 0.50000  0.15918  0.55529  Biso   1.000  O
  O2       1.0000 0.00000  0.34084  0.44471  Biso   1.000  O
  V2       1.0000 0.50000  0.49541  0.51310  Biso   1.000  V
  O3       1.0000 0.00000  0.67933  0.56085  Biso   1.000  O
  O4       1.0000 0.50000  0.82070  0.43915  Biso   1.000  O
