data_image0
_cell_length_a       3.90401
_cell_length_b       2.75076
_cell_length_c       19.7262
_cell_angle_alpha    90
_cell_angle_beta     90
_cell_angle_gamma    90

_symmetry_space_group_name_H-M    "P 1"
_symmetry_int_tables_number       1

loop_
  _symmetry_equiv_pos_as_xyz
  'x, y, z'

loop_
  _atom_site_label
  _atom_site_occupancy
  _atom_site_fract_x
  _atom_site_fract_y
  _atom_site_fract_z
  _atom_site_thermal_displace_type
  _atom_site_B_iso_or_equiv
  _atom_site_type_symbol
  V1       1.0000 0.63165  0.25000  0.55430  Biso   1.000  V
  V2       1.0000 0.13156  0.75000  0.44570  Biso   1.000  V
  O1       1.0000 0.13161  0.25000  0.51967  Biso   1.000  O
  O2       1.0000 0.63160  0.75000  0.48033  Biso   1.000  O
  O3       1.0000 0.31020  0.25000  0.37989  Biso   1.000  O
  O4       1.0000 0.45300  0.75000  0.62011  Biso   1.000  O
  O5       1.0000 0.95284  0.25000  0.37990  Biso   1.000  O
  O6       1.0000 0.81037  0.75000  0.62010  Biso   1.000  O
