data_image0
_cell_length_a       6.74453
_cell_length_b       6.8553
_cell_length_c       18.4116
_cell_angle_alpha    90
_cell_angle_beta     90
_cell_angle_gamma    119.467

_symmetry_space_group_name_H-M    "P 1"
_symmetry_int_tables_number       1

loop_
  _symmetry_equiv_pos_as_xyz
  'x, y, z'

loop_
  _atom_site_label
  _atom_site_occupancy
  _atom_site_fract_x
  _atom_site_fract_y
  _atom_site_fract_z
  _atom_site_thermal_displace_type
  _atom_site_B_iso_or_equiv
  _atom_site_type_symbol
  V1       1.0000 0.01314  0.98562  0.50015  Biso   1.000  V
  V2       1.0000 0.32020  0.68106  0.49985  Biso   1.000  V
  P1       1.0000 0.67095  0.33746  0.43959  Biso   1.000  P
  P2       1.0000 0.66239  0.32922  0.56044  Biso   1.000  P
  Te1      1.0000 0.31087  0.97652  0.40223  Biso   1.000  Te
  Te2      1.0000 0.03359  0.33086  0.40970  Biso   1.000  Te
  Te3      1.0000 0.66536  0.69790  0.40943  Biso   1.000  Te
  Te4      1.0000 0.02251  0.69020  0.59777  Biso   1.000  Te
  Te5      1.0000 0.29972  0.33582  0.59030  Biso   1.000  Te
  Te6      1.0000 0.66797  0.96874  0.59057  Biso   1.000  Te
