data_image0
_cell_length_a       5.94925
_cell_length_b       5.95266
_cell_length_c       18.4116
_cell_angle_alpha    90
_cell_angle_beta     90
_cell_angle_gamma    119.981

_symmetry_space_group_name_H-M    "P 1"
_symmetry_int_tables_number       1

loop_
  _symmetry_equiv_pos_as_xyz
  'x, y, z'

loop_
  _atom_site_label
  _atom_site_occupancy
  _atom_site_fract_x
  _atom_site_fract_y
  _atom_site_fract_z
  _atom_site_thermal_displace_type
  _atom_site_B_iso_or_equiv
  _atom_site_type_symbol
  V1       1.0000 0.99990  0.99931  0.50001  Biso   1.000  V
  V2       1.0000 0.33344  0.66737  0.50000  Biso   1.000  V
  P1       1.0000 0.66681  0.33338  0.44066  Biso   1.000  P
  P2       1.0000 0.66653  0.33330  0.55934  Biso   1.000  P
  S1       1.0000 0.32439  0.99106  0.41561  Biso   1.000  S
  S2       1.0000 0.00927  0.33328  0.41576  Biso   1.000  S
  S3       1.0000 0.66664  0.67563  0.41567  Biso   1.000  S
  S4       1.0000 0.00895  0.67563  0.58439  Biso   1.000  S
  S5       1.0000 0.32407  0.33340  0.58424  Biso   1.000  S
  S6       1.0000 0.66670  0.99104  0.58434  Biso   1.000  S
