data_image0
_cell_length_a       5.8796
_cell_length_b       5.88245
_cell_length_c       18.4116
_cell_angle_alpha    90
_cell_angle_beta     90
_cell_angle_gamma    119.984

_symmetry_space_group_name_H-M    "P 1"
_symmetry_int_tables_number       1

loop_
  _symmetry_equiv_pos_as_xyz
  'x, y, z'

loop_
  _atom_site_label
  _atom_site_occupancy
  _atom_site_fract_x
  _atom_site_fract_y
  _atom_site_fract_z
  _atom_site_thermal_displace_type
  _atom_site_B_iso_or_equiv
  _atom_site_type_symbol
  V1       1.0000 0.99991  0.99985  0.50000  Biso   1.000  V
  V2       1.0000 0.33343  0.66683  0.50000  Biso   1.000  V
  P1       1.0000 0.66675  0.33335  0.44053  Biso   1.000  P
  P2       1.0000 0.66659  0.33333  0.55947  Biso   1.000  P
  S1       1.0000 0.32502  0.99165  0.41416  Biso   1.000  S
  S2       1.0000 0.00853  0.33331  0.41415  Biso   1.000  S
  S3       1.0000 0.66668  0.67499  0.41414  Biso   1.000  S
  S4       1.0000 0.00832  0.67503  0.58585  Biso   1.000  S
  S5       1.0000 0.32481  0.33337  0.58585  Biso   1.000  S
  S6       1.0000 0.66666  0.99169  0.58586  Biso   1.000  S
