data_image0
_cell_length_a       6.24407
_cell_length_b       6.24657
_cell_length_c       18.4116
_cell_angle_alpha    90
_cell_angle_beta     90
_cell_angle_gamma    119.987

_symmetry_space_group_name_H-M    "P 1"
_symmetry_int_tables_number       1

loop_
  _symmetry_equiv_pos_as_xyz
  'x, y, z'

loop_
  _atom_site_label
  _atom_site_occupancy
  _atom_site_fract_x
  _atom_site_fract_y
  _atom_site_fract_z
  _atom_site_thermal_displace_type
  _atom_site_B_iso_or_equiv
  _atom_site_type_symbol
  V1       1.0000 0.99993  0.99978  0.50000  Biso   1.000  V
  V2       1.0000 0.33340  0.66685  0.49998  Biso   1.000  V
  P1       1.0000 0.66669  0.33325  0.43996  Biso   1.000  P
  P2       1.0000 0.66661  0.33338  0.56012  Biso   1.000  P
  Se1      1.0000 0.31766  0.98423  0.41020  Biso   1.000  Se
  Se2      1.0000 0.01593  0.33318  0.41030  Biso   1.000  Se
  Se3      1.0000 0.66660  0.68233  0.41028  Biso   1.000  Se
  Se4      1.0000 0.01588  0.68265  0.58972  Biso   1.000  Se
  Se5      1.0000 0.31724  0.33347  0.58972  Biso   1.000  Se
  Se6      1.0000 0.66676  0.98427  0.58974  Biso   1.000  Se
