data_image0
_cell_length_a       6.78665
_cell_length_b       6.78943
_cell_length_c       18.4116
_cell_angle_alpha    90
_cell_angle_beta     90
_cell_angle_gamma    119.986

_symmetry_space_group_name_H-M    "P 1"
_symmetry_int_tables_number       1

loop_
  _symmetry_equiv_pos_as_xyz
  'x, y, z'

loop_
  _atom_site_label
  _atom_site_occupancy
  _atom_site_fract_x
  _atom_site_fract_y
  _atom_site_fract_z
  _atom_site_thermal_displace_type
  _atom_site_B_iso_or_equiv
  _atom_site_type_symbol
  V1       1.0000 0.99963  0.99968  0.49997  Biso   1.000  V
  V2       1.0000 0.33371  0.66700  0.50004  Biso   1.000  V
  P1       1.0000 0.66677  0.33331  0.43968  Biso   1.000  P
  P2       1.0000 0.66656  0.33337  0.56033  Biso   1.000  P
  Te1      1.0000 0.30967  0.97644  0.40577  Biso   1.000  Te
  Te2      1.0000 0.02397  0.33331  0.40576  Biso   1.000  Te
  Te3      1.0000 0.66656  0.69016  0.40560  Biso   1.000  Te
  Te4      1.0000 0.02367  0.69023  0.59424  Biso   1.000  Te
  Te5      1.0000 0.30937  0.33337  0.59425  Biso   1.000  Te
  Te6      1.0000 0.66678  0.97653  0.59441  Biso   1.000  Te
