data_image0
_cell_length_a       6.27359
_cell_length_b       6.44137
_cell_length_c       18.4116
_cell_angle_alpha    90
_cell_angle_beta     90
_cell_angle_gamma    119.142

_symmetry_space_group_name_H-M    "P 1"
_symmetry_int_tables_number       1

loop_
  _symmetry_equiv_pos_as_xyz
  'x, y, z'

loop_
  _atom_site_label
  _atom_site_occupancy
  _atom_site_fract_x
  _atom_site_fract_y
  _atom_site_fract_z
  _atom_site_thermal_displace_type
  _atom_site_B_iso_or_equiv
  _atom_site_type_symbol
  V1       1.0000 0.01215  0.98535  0.49703  Biso   1.000  V
  V2       1.0000 0.32080  0.68259  0.49684  Biso   1.000  V
  P1       1.0000 0.67096  0.33610  0.45306  Biso   1.000  P
  P2       1.0000 0.66065  0.32808  0.57435  Biso   1.000  P
  Se1      1.0000 0.33881  0.00506  0.40867  Biso   1.000  Se
  Se2      1.0000 0.00575  0.33177  0.41339  Biso   1.000  Se
  Se3      1.0000 0.66437  0.66389  0.41319  Biso   1.000  Se
  Se4      1.0000 0.04062  0.71148  0.58578  Biso   1.000  Se
  Se5      1.0000 0.28985  0.33321  0.57895  Biso   1.000  Se
  Se6      1.0000 0.66273  0.95587  0.57875  Biso   1.000  Se
