data_image0
_cell_length_a       3.33953
_cell_length_b       3.33953
_cell_length_c       19.6385
_cell_angle_alpha    90
_cell_angle_beta     90
_cell_angle_gamma    120

_symmetry_space_group_name_H-M    "P 1"
_symmetry_int_tables_number       1

loop_
  _symmetry_equiv_pos_as_xyz
  'x, y, z'

loop_
  _atom_site_label
  _atom_site_occupancy
  _atom_site_fract_x
  _atom_site_fract_y
  _atom_site_fract_z
  _atom_site_thermal_displace_type
  _atom_site_B_iso_or_equiv
  _atom_site_type_symbol
  V1       1.0000 0.33319  0.66655  0.55616  Biso   1.000  V
  S1       1.0000 0.66672  0.33354  0.38168  Biso   1.000  S
  S2       1.0000 0.99994  0.99979  0.61832  Biso   1.000  S
  V2       1.0000 0.33347  0.66678  0.44384  Biso   1.000  V
