data_image0
_cell_length_a       3.55581
_cell_length_b       3.55492
_cell_length_c       17.5685
_cell_angle_alpha    90
_cell_angle_beta     90
_cell_angle_gamma    90

_symmetry_space_group_name_H-M    "P 1"
_symmetry_int_tables_number       1

loop_
  _symmetry_equiv_pos_as_xyz
  'x, y, z'

loop_
  _atom_site_label
  _atom_site_occupancy
  _atom_site_fract_x
  _atom_site_fract_y
  _atom_site_fract_z
  _atom_site_thermal_displace_type
  _atom_site_B_iso_or_equiv
  _atom_site_type_symbol
  V1       1.0000 0.00000  0.00003  0.50001  Biso   1.000  V
  S1       1.0000 0.00000  0.49998  0.59273  Biso   1.000  S
  V2       1.0000 0.50000  0.49988  0.49999  Biso   1.000  V
  S2       1.0000 0.00000  0.49990  0.40727  Biso   1.000  S
