data_image0
_cell_length_a       4.87763
_cell_length_b       3.24338
_cell_length_c       20.6614
_cell_angle_alpha    90
_cell_angle_beta     90
_cell_angle_gamma    90

_symmetry_space_group_name_H-M    "P 1"
_symmetry_int_tables_number       1

loop_
  _symmetry_equiv_pos_as_xyz
  'x, y, z'

loop_
  _atom_site_label
  _atom_site_occupancy
  _atom_site_fract_x
  _atom_site_fract_y
  _atom_site_fract_z
  _atom_site_thermal_displace_type
  _atom_site_B_iso_or_equiv
  _atom_site_type_symbol
  V1       1.0000 0.63161  0.25000  0.56500  Biso   1.000  V
  V2       1.0000 0.13161  0.75000  0.43500  Biso   1.000  V
  S1       1.0000 0.13161  0.25000  0.52009  Biso   1.000  S
  S2       1.0000 0.63161  0.75000  0.47991  Biso   1.000  S
  S3       1.0000 0.34100  0.25000  0.36191  Biso   1.000  S
  S4       1.0000 0.42221  0.75000  0.63809  Biso   1.000  S
  S5       1.0000 0.92220  0.25000  0.36191  Biso   1.000  S
  S6       1.0000 0.84102  0.75000  0.63808  Biso   1.000  S
