data_image0
_cell_length_a       6.32772
_cell_length_b       6.3284
_cell_length_c       16.5043
_cell_angle_alpha    90
_cell_angle_beta     90
_cell_angle_gamma    90

_symmetry_space_group_name_H-M    "P 1"
_symmetry_int_tables_number       1

loop_
  _symmetry_equiv_pos_as_xyz
  'x, y, z'

loop_
  _atom_site_label
  _atom_site_occupancy
  _atom_site_fract_x
  _atom_site_fract_y
  _atom_site_fract_z
  _atom_site_thermal_displace_type
  _atom_site_B_iso_or_equiv
  _atom_site_type_symbol
  V1       1.0000 0.50000  1.00000  0.50000  Biso   1.000  V
  V2       1.0000 0.00000  0.50000  0.50000  Biso   1.000  V
  Se1      1.0000 0.14865  0.14867  0.49995  Biso   1.000  Se
  Se2      1.0000 0.64865  0.35133  0.50005  Biso   1.000  Se
  Se3      1.0000 0.85135  0.85133  0.50005  Biso   1.000  Se
  Se4      1.0000 0.35135  0.64867  0.49995  Biso   1.000  Se
