data_image0
_cell_length_a       3.60251
_cell_length_b       3.60251
_cell_length_c       19.5794
_cell_angle_alpha    90
_cell_angle_beta     90
_cell_angle_gamma    120

_symmetry_space_group_name_H-M    "P 1"
_symmetry_int_tables_number       1

loop_
  _symmetry_equiv_pos_as_xyz
  'x, y, z'

loop_
  _atom_site_label
  _atom_site_occupancy
  _atom_site_fract_x
  _atom_site_fract_y
  _atom_site_fract_z
  _atom_site_thermal_displace_type
  _atom_site_B_iso_or_equiv
  _atom_site_type_symbol
  V1       1.0000 0.33320  0.66641  0.55298  Biso   1.000  V
  Se1      1.0000 0.66667  0.33327  0.38306  Biso   1.000  Se
  Se2      1.0000 0.99992  0.99991  0.61694  Biso   1.000  Se
  V2       1.0000 0.33316  0.66631  0.44702  Biso   1.000  V
