data_image0
_cell_length_a       6.15204
_cell_length_b       3.56546
_cell_length_c       21.6583
_cell_angle_alpha    90
_cell_angle_beta     90
_cell_angle_gamma    90

_symmetry_space_group_name_H-M    "P 1"
_symmetry_int_tables_number       1

loop_
  _symmetry_equiv_pos_as_xyz
  'x, y, z'

loop_
  _atom_site_label
  _atom_site_occupancy
  _atom_site_fract_x
  _atom_site_fract_y
  _atom_site_fract_z
  _atom_site_thermal_displace_type
  _atom_site_B_iso_or_equiv
  _atom_site_type_symbol
  V1       1.0000 0.55420  0.25000  0.57929  Biso   1.000  V
  V2       1.0000 0.20903  0.75000  0.42071  Biso   1.000  V
  Te1      1.0000 0.15600  0.25000  0.51641  Biso   1.000  Te
  Te2      1.0000 0.60723  0.75000  0.48360  Biso   1.000  Te
  Te3      1.0000 0.42505  0.25000  0.34549  Biso   1.000  Te
  Te4      1.0000 0.33818  0.75000  0.65451  Biso   1.000  Te
  Te5      1.0000 0.95409  0.25000  0.35611  Biso   1.000  Te
  Te6      1.0000 0.80912  0.75000  0.64389  Biso   1.000  Te
