data_image0
_cell_length_a       3.97145
_cell_length_b       3.97145
_cell_length_c       19.6274
_cell_angle_alpha    90
_cell_angle_beta     90
_cell_angle_gamma    120

_symmetry_space_group_name_H-M    "P 1"
_symmetry_int_tables_number       1

loop_
  _symmetry_equiv_pos_as_xyz
  'x, y, z'

loop_
  _atom_site_label
  _atom_site_occupancy
  _atom_site_fract_x
  _atom_site_fract_y
  _atom_site_fract_z
  _atom_site_thermal_displace_type
  _atom_site_B_iso_or_equiv
  _atom_site_type_symbol
  V1       1.0000 0.33326  0.66658  0.55006  Biso   1.000  V
  Te1      1.0000 0.66672  0.33331  0.38212  Biso   1.000  Te
  Te2      1.0000 0.99992  0.99998  0.61788  Biso   1.000  Te
  V2       1.0000 0.33331  0.66657  0.44994  Biso   1.000  V
