data_image0
_cell_length_a       6.20984
_cell_length_b       3.56279
_cell_length_c       21.6583
_cell_angle_alpha    90
_cell_angle_beta     90
_cell_angle_gamma    90

_symmetry_space_group_name_H-M    "P 1"
_symmetry_int_tables_number       1

loop_
  _symmetry_equiv_pos_as_xyz
  'x, y, z'

loop_
  _atom_site_label
  _atom_site_occupancy
  _atom_site_fract_x
  _atom_site_fract_y
  _atom_site_fract_z
  _atom_site_thermal_displace_type
  _atom_site_B_iso_or_equiv
  _atom_site_type_symbol
  V1       1.0000 0.53778  0.25000  0.58263  Biso   1.000  V
  V2       1.0000 0.22561  0.75000  0.41739  Biso   1.000  V
  Te1      1.0000 0.15895  0.25000  0.51287  Biso   1.000  Te
  Te2      1.0000 0.60439  0.75000  0.48715  Biso   1.000  Te
  Te3      1.0000 0.45030  0.25000  0.34624  Biso   1.000  Te
  Te4      1.0000 0.31305  0.75000  0.65375  Biso   1.000  Te
  Te5      1.0000 0.97145  0.25000  0.35436  Biso   1.000  Te
  Te6      1.0000 0.79196  0.75000  0.64565  Biso   1.000  Te
