data_image0
_cell_length_a       3.96529
_cell_length_b       3.96557
_cell_length_c       18.8558
_cell_angle_alpha    90
_cell_angle_beta     90
_cell_angle_gamma    119.998

_symmetry_space_group_name_H-M    "P 1"
_symmetry_int_tables_number       1

loop_
  _symmetry_equiv_pos_as_xyz
  'x, y, z'

loop_
  _atom_site_label
  _atom_site_occupancy
  _atom_site_fract_x
  _atom_site_fract_y
  _atom_site_fract_z
  _atom_site_thermal_displace_type
  _atom_site_B_iso_or_equiv
  _atom_site_type_symbol
  Te1      1.0000 0.00000  0.00001  0.39292  Biso   1.000  Te
  Te2      1.0000 0.33333  0.66665  0.60715  Biso   1.000  Te
  V1       1.0000 0.00000  0.00002  0.53614  Biso   1.000  V
  V2       1.0000 0.33333  0.66664  0.46393  Biso   1.000  V
