data_image0
_cell_length_a       2.94623
_cell_length_b       2.94623
_cell_length_c       24.5837
_cell_angle_alpha    90
_cell_angle_beta     90
_cell_angle_gamma    120

_symmetry_space_group_name_H-M    "P 1"
_symmetry_int_tables_number       1

loop_
  _symmetry_equiv_pos_as_xyz
  'x, y, z'

loop_
  _atom_site_label
  _atom_site_occupancy
  _atom_site_fract_x
  _atom_site_fract_y
  _atom_site_fract_z
  _atom_site_thermal_displace_type
  _atom_site_B_iso_or_equiv
  _atom_site_type_symbol
  V1       1.0000 0.33333  0.66667  0.44923  Biso   1.000  V
  V2       1.0000 0.66667  0.33333  0.55094  Biso   1.000  V
  V3       1.0000 0.00000  0.00000  0.35857  Biso   1.000  V
  V4       1.0000 0.00000  0.00000  0.64162  Biso   1.000  V
  C1       1.0000 0.00000  0.00000  0.50008  Biso   1.000  C
  C2       1.0000 0.66667  0.33333  0.40102  Biso   1.000  C
  C3       1.0000 0.33333  0.66667  0.59916  Biso   1.000  C
  F1       1.0000 0.66667  0.33333  0.69512  Biso   1.000  F
  F2       1.0000 0.33333  0.66667  0.30509  Biso   1.000  F
