data_image0
_cell_length_a       2.92404
_cell_length_b       2.92404
_cell_length_c       24.0788
_cell_angle_alpha    90
_cell_angle_beta     90
_cell_angle_gamma    120

_symmetry_space_group_name_H-M    "P 1"
_symmetry_int_tables_number       1

loop_
  _symmetry_equiv_pos_as_xyz
  'x, y, z'

loop_
  _atom_site_label
  _atom_site_occupancy
  _atom_site_fract_x
  _atom_site_fract_y
  _atom_site_fract_z
  _atom_site_thermal_displace_type
  _atom_site_B_iso_or_equiv
  _atom_site_type_symbol
  V1       1.0000 0.33333  0.66667  0.44961  Biso   1.000  V
  V2       1.0000 0.66667  0.33333  0.55039  Biso   1.000  V
  V3       1.0000 0.00000  0.00000  0.35056  Biso   1.000  V
  V4       1.0000 0.00000  0.00000  0.64943  Biso   1.000  V
  N1       1.0000 0.00000  0.00000  0.50000  Biso   1.000  N
  N2       1.0000 0.66667  0.33333  0.40121  Biso   1.000  N
  N3       1.0000 0.33333  0.66667  0.59879  Biso   1.000  N
  O1       1.0000 0.66667  0.33333  0.68968  Biso   1.000  O
  O2       1.0000 0.33333  0.66667  0.31031  Biso   1.000  O
