data_image0
_cell_length_a       3.11022
_cell_length_b       5.40835
_cell_length_c       18.4882
_cell_angle_alpha    90
_cell_angle_beta     90
_cell_angle_gamma    90

_symmetry_space_group_name_H-M    "P 1"
_symmetry_int_tables_number       1

loop_
  _symmetry_equiv_pos_as_xyz
  'x, y, z'

loop_
  _atom_site_label
  _atom_site_occupancy
  _atom_site_fract_x
  _atom_site_fract_y
  _atom_site_fract_z
  _atom_site_thermal_displace_type
  _atom_site_B_iso_or_equiv
  _atom_site_type_symbol
  W1       1.0000 0.00000  0.01323  0.50185  Biso   1.000  W
  Cl1      1.0000 0.50000  0.16566  0.59894  Biso   1.000  Cl
  Cl2      1.0000 0.00000  0.33434  0.40106  Biso   1.000  Cl
  W2       1.0000 0.50000  0.48677  0.49815  Biso   1.000  W
  Cl3      1.0000 0.00000  0.66639  0.58939  Biso   1.000  Cl
  Cl4      1.0000 0.50000  0.83361  0.41061  Biso   1.000  Cl
