data_image0
_cell_length_a       3.1693
_cell_length_b       3.16922
_cell_length_c       18.8558
_cell_angle_alpha    90
_cell_angle_beta     90
_cell_angle_gamma    120.001

_symmetry_space_group_name_H-M    "P 1"
_symmetry_int_tables_number       1

loop_
  _symmetry_equiv_pos_as_xyz
  'x, y, z'

loop_
  _atom_site_label
  _atom_site_occupancy
  _atom_site_fract_x
  _atom_site_fract_y
  _atom_site_fract_z
  _atom_site_thermal_displace_type
  _atom_site_B_iso_or_equiv
  _atom_site_type_symbol
  Cl1      1.0000 0.99984  0.00013  0.35471  Biso   1.000  Cl
  Cl2      1.0000 0.33350  0.66654  0.64536  Biso   1.000  Cl
  W1       1.0000 0.00004  1.00000  0.54937  Biso   1.000  W
  W2       1.0000 0.33330  0.66667  0.45070  Biso   1.000  W
