data_image0
_cell_length_a       2.97586
_cell_length_b       2.97602
_cell_length_c       18.8558
_cell_angle_alpha    90
_cell_angle_beta     90
_cell_angle_gamma    119.998

_symmetry_space_group_name_H-M    "P 1"
_symmetry_int_tables_number       1

loop_
  _symmetry_equiv_pos_as_xyz
  'x, y, z'

loop_
  _atom_site_label
  _atom_site_occupancy
  _atom_site_fract_x
  _atom_site_fract_y
  _atom_site_fract_z
  _atom_site_thermal_displace_type
  _atom_site_B_iso_or_equiv
  _atom_site_type_symbol
  F1       1.0000 0.99985  0.00009  0.37169  Biso   1.000  F
  F2       1.0000 0.33348  0.66658  0.62838  Biso   1.000  F
  W1       1.0000 0.00004  0.00005  0.55162  Biso   1.000  W
  W2       1.0000 0.33330  0.66661  0.44844  Biso   1.000  W
