data_image0
_cell_length_a       4.83748
_cell_length_b       3.88187
_cell_length_c       21.3418
_cell_angle_alpha    90
_cell_angle_beta     90
_cell_angle_gamma    90

_symmetry_space_group_name_H-M    "P 1"
_symmetry_int_tables_number       1

loop_
  _symmetry_equiv_pos_as_xyz
  'x, y, z'

loop_
  _atom_site_label
  _atom_site_occupancy
  _atom_site_fract_x
  _atom_site_fract_y
  _atom_site_fract_z
  _atom_site_thermal_displace_type
  _atom_site_B_iso_or_equiv
  _atom_site_type_symbol
  W1       1.0000 0.50000  0.00000  0.44965  Biso   1.000  W
  W2       1.0000 0.00000  0.50000  0.55035  Biso   1.000  W
  S1       1.0000 0.50000  0.50000  0.52296  Biso   1.000  S
  S2       1.0000 0.00000  0.00000  0.47704  Biso   1.000  S
  I1       1.0000 0.50000  0.50000  0.35334  Biso   1.000  I
  I2       1.0000 0.00000  0.00000  0.64666  Biso   1.000  I
