data_image0
_cell_length_a       3.50261
_cell_length_b       3.50258
_cell_length_c       18.8558
_cell_angle_alpha    90
_cell_angle_beta     90
_cell_angle_gamma    120

_symmetry_space_group_name_H-M    "P 1"
_symmetry_int_tables_number       1

loop_
  _symmetry_equiv_pos_as_xyz
  'x, y, z'

loop_
  _atom_site_label
  _atom_site_occupancy
  _atom_site_fract_x
  _atom_site_fract_y
  _atom_site_fract_z
  _atom_site_thermal_displace_type
  _atom_site_B_iso_or_equiv
  _atom_site_type_symbol
  I1       1.0000 0.99991  0.00009  0.34302  Biso   1.000  I
  I2       1.0000 0.33342  0.66658  0.65705  Biso   1.000  I
  W1       1.0000 0.00002  0.00000  0.54373  Biso   1.000  W
  W2       1.0000 0.33332  0.66666  0.45634  Biso   1.000  W
