data_image0
_cell_length_a       2.94686
_cell_length_b       5.04742
_cell_length_c       17.3798
_cell_angle_alpha    90
_cell_angle_beta     90
_cell_angle_gamma    90

_symmetry_space_group_name_H-M    "P 1"
_symmetry_int_tables_number       1

loop_
  _symmetry_equiv_pos_as_xyz
  'x, y, z'

loop_
  _atom_site_label
  _atom_site_occupancy
  _atom_site_fract_x
  _atom_site_fract_y
  _atom_site_fract_z
  _atom_site_thermal_displace_type
  _atom_site_B_iso_or_equiv
  _atom_site_type_symbol
  W1       1.0000 0.00000  0.03688  0.50216  Biso   1.000  W
  O1       1.0000 0.50000  0.14405  0.57664  Biso   1.000  O
  O2       1.0000 0.00000  0.35594  0.42336  Biso   1.000  O
  W2       1.0000 0.50000  0.46312  0.49784  Biso   1.000  W
  O3       1.0000 1.00000  0.66135  0.55541  Biso   1.000  O
  O4       1.0000 0.50000  0.83864  0.44459  Biso   1.000  O
