data_image0
_cell_length_a       6.40318
_cell_length_b       7.06148
_cell_length_c       18.6947
_cell_angle_alpha    90
_cell_angle_beta     90
_cell_angle_gamma    116.961

_symmetry_space_group_name_H-M    "P 1"
_symmetry_int_tables_number       1

loop_
  _symmetry_equiv_pos_as_xyz
  'x, y, z'

loop_
  _atom_site_label
  _atom_site_occupancy
  _atom_site_fract_x
  _atom_site_fract_y
  _atom_site_fract_z
  _atom_site_thermal_displace_type
  _atom_site_B_iso_or_equiv
  _atom_site_type_symbol
  W1       1.0000 0.97436  0.95241  0.50093  Biso   1.000  W
  W2       1.0000 0.35898  0.71427  0.49907  Biso   1.000  W
  P1       1.0000 0.65538  0.32929  0.44167  Biso   1.000  P
  P2       1.0000 0.67796  0.33740  0.55834  Biso   1.000  P
  Te1      1.0000 0.29492  0.95680  0.40202  Biso   1.000  Te
  Te2      1.0000 0.04044  0.33511  0.42064  Biso   1.000  Te
  Te3      1.0000 0.67051  0.69454  0.40370  Biso   1.000  Te
  Te4      1.0000 0.03844  0.70990  0.59798  Biso   1.000  Te
  Te5      1.0000 0.29289  0.33157  0.57935  Biso   1.000  Te
  Te6      1.0000 0.66283  0.97212  0.59629  Biso   1.000  Te
