data_image0
_cell_length_a       5.85947
_cell_length_b       6.74593
_cell_length_c       18.4789
_cell_angle_alpha    90
_cell_angle_beta     90
_cell_angle_gamma    115.741

_symmetry_space_group_name_H-M    "P 1"
_symmetry_int_tables_number       1

loop_
  _symmetry_equiv_pos_as_xyz
  'x, y, z'

loop_
  _atom_site_label
  _atom_site_occupancy
  _atom_site_fract_x
  _atom_site_fract_y
  _atom_site_fract_z
  _atom_site_thermal_displace_type
  _atom_site_B_iso_or_equiv
  _atom_site_type_symbol
  W1       1.0000 0.96959  0.94668  0.50287  Biso   1.000  W
  W2       1.0000 0.36376  0.72000  0.49711  Biso   1.000  W
  P1       1.0000 0.65703  0.32793  0.44052  Biso   1.000  P
  P2       1.0000 0.67632  0.33876  0.55947  Biso   1.000  P
  Se1      1.0000 0.28844  0.93948  0.40657  Biso   1.000  Se
  Se2      1.0000 0.04513  0.34446  0.42369  Biso   1.000  Se
  Se3      1.0000 0.67655  0.67625  0.41132  Biso   1.000  Se
  Se4      1.0000 0.04490  0.72718  0.59343  Biso   1.000  Se
  Se5      1.0000 0.28821  0.32222  0.57631  Biso   1.000  Se
  Se6      1.0000 0.65678  0.99043  0.58867  Biso   1.000  Se
