data_image0
_cell_length_a       3.00107
_cell_length_b       3.00107
_cell_length_c       21.0026
_cell_angle_alpha    90
_cell_angle_beta     90
_cell_angle_gamma    120

_symmetry_space_group_name_H-M    "P 1"
_symmetry_int_tables_number       1

loop_
  _symmetry_equiv_pos_as_xyz
  'x, y, z'

loop_
  _atom_site_label
  _atom_site_occupancy
  _atom_site_fract_x
  _atom_site_fract_y
  _atom_site_fract_z
  _atom_site_thermal_displace_type
  _atom_site_B_iso_or_equiv
  _atom_site_type_symbol
  W1       1.0000 0.33325  0.66649  0.56396  Biso   1.000  W
  S1       1.0000 0.66677  0.33354  0.35710  Biso   1.000  S
  S2       1.0000 0.99994  0.99988  0.64290  Biso   1.000  S
  W2       1.0000 0.33359  0.66719  0.43604  Biso   1.000  W
