data_image0
_cell_length_a       3.20072
_cell_length_b       5.72544
_cell_length_c       18.1562
_cell_angle_alpha    90
_cell_angle_beta     90
_cell_angle_gamma    90

_symmetry_space_group_name_H-M    "P 1"
_symmetry_int_tables_number       1

loop_
  _symmetry_equiv_pos_as_xyz
  'x, y, z'

loop_
  _atom_site_label
  _atom_site_occupancy
  _atom_site_fract_x
  _atom_site_fract_y
  _atom_site_fract_z
  _atom_site_thermal_displace_type
  _atom_site_B_iso_or_equiv
  _atom_site_type_symbol
  W1       1.0000 0.00000  0.05152  0.50376  Biso   1.000  W
  S1       1.0000 0.50000  0.16403  0.59606  Biso   1.000  S
  S2       1.0000 0.00000  0.33597  0.40394  Biso   1.000  S
  W2       1.0000 0.50000  0.44848  0.49624  Biso   1.000  W
  S3       1.0000 1.00000  0.67018  0.57309  Biso   1.000  S
  S4       1.0000 0.50000  0.82982  0.42691  Biso   1.000  S
