data_image0
_cell_length_a       6.08824
_cell_length_b       6.08765
_cell_length_c       16.4239
_cell_angle_alpha    90
_cell_angle_beta     90
_cell_angle_gamma    90

_symmetry_space_group_name_H-M    "P 1"
_symmetry_int_tables_number       1

loop_
  _symmetry_equiv_pos_as_xyz
  'x, y, z'

loop_
  _atom_site_label
  _atom_site_occupancy
  _atom_site_fract_x
  _atom_site_fract_y
  _atom_site_fract_z
  _atom_site_thermal_displace_type
  _atom_site_B_iso_or_equiv
  _atom_site_type_symbol
  W1       1.0000 0.50000  0.00000  0.50000  Biso   1.000  W
  W2       1.0000 0.00000  0.50000  0.50000  Biso   1.000  W
  S1       1.0000 0.14883  0.14891  0.50001  Biso   1.000  S
  S2       1.0000 0.64883  0.35109  0.49999  Biso   1.000  S
  S3       1.0000 0.85117  0.85109  0.49999  Biso   1.000  S
  S4       1.0000 0.35117  0.64891  0.50001  Biso   1.000  S
