data_image0
_cell_length_a       4.97575
_cell_length_b       3.20122
_cell_length_c       20.9567
_cell_angle_alpha    90
_cell_angle_beta     90
_cell_angle_gamma    90

_symmetry_space_group_name_H-M    "P 1"
_symmetry_int_tables_number       1

loop_
  _symmetry_equiv_pos_as_xyz
  'x, y, z'

loop_
  _atom_site_label
  _atom_site_occupancy
  _atom_site_fract_x
  _atom_site_fract_y
  _atom_site_fract_z
  _atom_site_thermal_displace_type
  _atom_site_B_iso_or_equiv
  _atom_site_type_symbol
  W1       1.0000 0.63089  0.25000  0.57260  Biso   1.000  W
  W2       1.0000 0.13233  0.75000  0.42740  Biso   1.000  W
  S1       1.0000 0.13166  0.25000  0.51777  Biso   1.000  S
  S2       1.0000 0.63156  0.75000  0.48223  Biso   1.000  S
  S3       1.0000 0.37536  0.25000  0.36055  Biso   1.000  S
  S4       1.0000 0.38786  0.75000  0.63945  Biso   1.000  S
  S5       1.0000 0.88879  0.25000  0.36063  Biso   1.000  S
  S6       1.0000 0.87443  0.75000  0.63937  Biso   1.000  S
