data_image0
_cell_length_a       3.7304
_cell_length_b       3.81228
_cell_length_c       17.8074
_cell_angle_alpha    90
_cell_angle_beta     90
_cell_angle_gamma    90

_symmetry_space_group_name_H-M    "P 1"
_symmetry_int_tables_number       1

loop_
  _symmetry_equiv_pos_as_xyz
  'x, y, z'

loop_
  _atom_site_label
  _atom_site_occupancy
  _atom_site_fract_x
  _atom_site_fract_y
  _atom_site_fract_z
  _atom_site_thermal_displace_type
  _atom_site_B_iso_or_equiv
  _atom_site_type_symbol
  W1       1.0000 0.00000  0.00680  0.50000  Biso   1.000  W
  Se1      1.0000 0.00000  0.51068  0.60405  Biso   1.000  Se
  W2       1.0000 0.50000  0.47117  0.49998  Biso   1.000  W
  Se2      1.0000 0.00000  0.51114  0.39597  Biso   1.000  Se
