data_image0
_cell_length_a       3.95295
_cell_length_b       3.95347
_cell_length_c       18.8558
_cell_angle_alpha    90
_cell_angle_beta     90
_cell_angle_gamma    119.996

_symmetry_space_group_name_H-M    "P 1"
_symmetry_int_tables_number       1

loop_
  _symmetry_equiv_pos_as_xyz
  'x, y, z'

loop_
  _atom_site_label
  _atom_site_occupancy
  _atom_site_fract_x
  _atom_site_fract_y
  _atom_site_fract_z
  _atom_site_thermal_displace_type
  _atom_site_B_iso_or_equiv
  _atom_site_type_symbol
  Se1      1.0000 0.99998  0.00003  0.39573  Biso   1.000  Se
  Se2      1.0000 0.33336  0.66664  0.60434  Biso   1.000  Se
  W1       1.0000 0.00001  0.00002  0.53195  Biso   1.000  W
  W2       1.0000 0.33333  0.66665  0.46812  Biso   1.000  W
