data_image0
_cell_length_a       3.12454
_cell_length_b       3.12406
_cell_length_c       20.7586
_cell_angle_alpha    90
_cell_angle_beta     90
_cell_angle_gamma    120.005

_symmetry_space_group_name_H-M    "P 1"
_symmetry_int_tables_number       1

loop_
  _symmetry_equiv_pos_as_xyz
  'x, y, z'

loop_
  _atom_site_label
  _atom_site_occupancy
  _atom_site_fract_x
  _atom_site_fract_y
  _atom_site_fract_z
  _atom_site_thermal_displace_type
  _atom_site_B_iso_or_equiv
  _atom_site_type_symbol
  W1       1.0000 0.49954  0.50119  0.55384  Biso   1.000  W
  Se1      1.0000 0.50016  0.49818  0.36132  Biso   1.000  Se
  Se2      1.0000 0.16619  0.83453  0.63868  Biso   1.000  Se
  W2       1.0000 0.16685  0.83159  0.44616  Biso   1.000  W
