data_image0
_cell_length_a       3.30429
_cell_length_b       5.94962
_cell_length_c       18.4494
_cell_angle_alpha    90
_cell_angle_beta     90
_cell_angle_gamma    90

_symmetry_space_group_name_H-M    "P 1"
_symmetry_int_tables_number       1

loop_
  _symmetry_equiv_pos_as_xyz
  'x, y, z'

loop_
  _atom_site_label
  _atom_site_occupancy
  _atom_site_fract_x
  _atom_site_fract_y
  _atom_site_fract_z
  _atom_site_thermal_displace_type
  _atom_site_B_iso_or_equiv
  _atom_site_type_symbol
  W1       1.0000 0.00000  0.06046  0.50461  Biso   1.000  W
  Se1      1.0000 0.50000  0.16623  0.60256  Biso   1.000  Se
  Se2      1.0000 0.00000  0.33377  0.39744  Biso   1.000  Se
  W2       1.0000 0.50000  0.43954  0.49539  Biso   1.000  W
  Se3      1.0000 1.00000  0.67352  0.57599  Biso   1.000  Se
  Se4      1.0000 0.50000  0.82648  0.42401  Biso   1.000  Se
