data_image0
_cell_length_a       6.66219
_cell_length_b       3.50873
_cell_length_c       21.6085
_cell_angle_alpha    90
_cell_angle_beta     90
_cell_angle_gamma    90

_symmetry_space_group_name_H-M    "P 1"
_symmetry_int_tables_number       1

loop_
  _symmetry_equiv_pos_as_xyz
  'x, y, z'

loop_
  _atom_site_label
  _atom_site_occupancy
  _atom_site_fract_x
  _atom_site_fract_y
  _atom_site_fract_z
  _atom_site_thermal_displace_type
  _atom_site_B_iso_or_equiv
  _atom_site_type_symbol
  W1       1.0000 0.48755  0.25019  0.59079  Biso   1.000  W
  W2       1.0000 0.28009  0.74998  0.40926  Biso   1.000  W
  Te1      1.0000 0.16188  0.25005  0.50540  Biso   1.000  Te
  Te2      1.0000 0.60574  0.75012  0.49464  Biso   1.000  Te
  Te3      1.0000 0.52140  0.24998  0.34628  Biso   1.000  Te
  Te4      1.0000 0.24625  0.75019  0.65376  Biso   1.000  Te
  Te5      1.0000 0.02855  0.24994  0.35153  Biso   1.000  Te
  Te6      1.0000 0.73908  0.75024  0.64852  Biso   1.000  Te
