data_image0
_cell_length_a       3.49157
_cell_length_b       6.31354
_cell_length_c       18.7339
_cell_angle_alpha    90
_cell_angle_beta     90
_cell_angle_gamma    90

_symmetry_space_group_name_H-M    "P 1"
_symmetry_int_tables_number       1

loop_
  _symmetry_equiv_pos_as_xyz
  'x, y, z'

loop_
  _atom_site_label
  _atom_site_occupancy
  _atom_site_fract_x
  _atom_site_fract_y
  _atom_site_fract_z
  _atom_site_thermal_displace_type
  _atom_site_B_iso_or_equiv
  _atom_site_type_symbol
  W1       1.0000 0.00000  0.07179  0.50556  Biso   1.000  W
  Te1      1.0000 0.50000  0.17069  0.61157  Biso   1.000  Te
  Te2      1.0000 1.00000  0.32931  0.38843  Biso   1.000  Te
  W2       1.0000 0.50000  0.42821  0.49444  Biso   1.000  W
  Te3      1.0000 1.00000  0.67809  0.57870  Biso   1.000  Te
  Te4      1.0000 0.50000  0.82191  0.42130  Biso   1.000  Te
