data_image0
_cell_length_a       4.42384
_cell_length_b       4.42384
_cell_length_c       18.9866
_cell_angle_alpha    90
_cell_angle_beta     90
_cell_angle_gamma    120

_symmetry_space_group_name_H-M    "P 1"
_symmetry_int_tables_number       1

loop_
  _symmetry_equiv_pos_as_xyz
  'x, y, z'

loop_
  _atom_site_label
  _atom_site_occupancy
  _atom_site_fract_x
  _atom_site_fract_y
  _atom_site_fract_z
  _atom_site_thermal_displace_type
  _atom_site_B_iso_or_equiv
  _atom_site_type_symbol
  W1       1.0000 0.33343  0.66685  0.55980  Biso   1.000  W
  Te1      1.0000 0.66703  0.33400  0.39502  Biso   1.000  Te
  Te2      1.0000 0.00008  0.00023  0.60498  Biso   1.000  Te
  W2       1.0000 0.33362  0.66725  0.44020  Biso   1.000  W
