data_image0
_cell_length_a       3.26626
_cell_length_b       3.26626
_cell_length_c       24.2208
_cell_angle_alpha    90
_cell_angle_beta     90
_cell_angle_gamma    120

_symmetry_space_group_name_H-M    "P 1"
_symmetry_int_tables_number       1

loop_
  _symmetry_equiv_pos_as_xyz
  'x, y, z'

loop_
  _atom_site_label
  _atom_site_occupancy
  _atom_site_fract_x
  _atom_site_fract_y
  _atom_site_fract_z
  _atom_site_thermal_displace_type
  _atom_site_B_iso_or_equiv
  _atom_site_type_symbol
  W1       1.0000 0.33333  0.66667  0.44703  Biso   1.000  W
  W2       1.0000 0.66667  0.33333  0.55288  Biso   1.000  W
  W3       1.0000 0.00000  0.00000  0.36397  Biso   1.000  W
  W4       1.0000 0.00000  0.00000  0.63596  Biso   1.000  W
  N1       1.0000 0.00000  0.00000  0.49996  Biso   1.000  N
  N2       1.0000 0.66667  0.33333  0.38467  Biso   1.000  N
  N3       1.0000 0.33333  0.66667  0.61528  Biso   1.000  N
  F1       1.0000 0.66667  0.33333  0.69130  Biso   1.000  F
  F2       1.0000 0.33333  0.66667  0.30862  Biso   1.000  F
