data_image0
_cell_length_a       3.75485
_cell_length_b       6.51676
_cell_length_c       18.3333
_cell_angle_alpha    90
_cell_angle_beta     90
_cell_angle_gamma    90

_symmetry_space_group_name_H-M    "P 1"
_symmetry_int_tables_number       1

loop_
  _symmetry_equiv_pos_as_xyz
  'x, y, z'

loop_
  _atom_site_label
  _atom_site_occupancy
  _atom_site_fract_x
  _atom_site_fract_y
  _atom_site_fract_z
  _atom_site_thermal_displace_type
  _atom_site_B_iso_or_equiv
  _atom_site_type_symbol
  Y1       1.0000 0.00000  0.01551  0.49997  Biso   1.000  Y
  Cl1      1.0000 0.50000  0.16161  0.59376  Biso   1.000  Cl
  Cl2      1.0000 0.00000  0.33839  0.40624  Biso   1.000  Cl
  Y2       1.0000 0.50000  0.48449  0.50003  Biso   1.000  Y
  Cl3      1.0000 0.00000  0.66992  0.58675  Biso   1.000  Cl
  Cl4      1.0000 0.50000  0.83008  0.41325  Biso   1.000  Cl
