data_image0
_cell_length_a       3.53289
_cell_length_b       3.53289
_cell_length_c       22.2717
_cell_angle_alpha    90
_cell_angle_beta     90
_cell_angle_gamma    120

_symmetry_space_group_name_H-M    "P 1"
_symmetry_int_tables_number       1

loop_
  _symmetry_equiv_pos_as_xyz
  'x, y, z'

loop_
  _atom_site_label
  _atom_site_occupancy
  _atom_site_fract_x
  _atom_site_fract_y
  _atom_site_fract_z
  _atom_site_thermal_displace_type
  _atom_site_B_iso_or_equiv
  _atom_site_type_symbol
  Y1       1.0000 0.00000  0.00000  0.50000  Biso   1.000  Y
  Y2       1.0000 0.66667  0.33333  0.63094  Biso   1.000  Y
  Y3       1.0000 0.66667  0.33333  0.36906  Biso   1.000  Y
  N1       1.0000 0.33333  0.66667  0.55789  Biso   1.000  N
  N2       1.0000 0.33333  0.66667  0.44211  Biso   1.000  N
  O1       1.0000 0.00000  0.00000  0.66350  Biso   1.000  O
  O2       1.0000 0.00000  0.00000  0.33650  Biso   1.000  O
