data_image0
_cell_length_a       3.65739
_cell_length_b       3.65727
_cell_length_c       18.8558
_cell_angle_alpha    90
_cell_angle_beta     90
_cell_angle_gamma    120.001

_symmetry_space_group_name_H-M    "P 1"
_symmetry_int_tables_number       1

loop_
  _symmetry_equiv_pos_as_xyz
  'x, y, z'

loop_
  _atom_site_label
  _atom_site_occupancy
  _atom_site_fract_x
  _atom_site_fract_y
  _atom_site_fract_z
  _atom_site_thermal_displace_type
  _atom_site_B_iso_or_equiv
  _atom_site_type_symbol
  Br1      1.0000 0.99999  0.00000  0.36090  Biso   1.000  Br
  Br2      1.0000 0.33334  0.66666  0.63917  Biso   1.000  Br
  Zn1      1.0000 0.99982  0.00018  0.55499  Biso   1.000  Zn
  Zn2      1.0000 0.33351  0.66649  0.44508  Biso   1.000  Zn
