data_image0
_cell_length_a       3.0527
_cell_length_b       3.04998
_cell_length_c       18.8558
_cell_angle_alpha    90
_cell_angle_beta     90
_cell_angle_gamma    120.03

_symmetry_space_group_name_H-M    "P 1"
_symmetry_int_tables_number       1

loop_
  _symmetry_equiv_pos_as_xyz
  'x, y, z'

loop_
  _atom_site_label
  _atom_site_occupancy
  _atom_site_fract_x
  _atom_site_fract_y
  _atom_site_fract_z
  _atom_site_thermal_displace_type
  _atom_site_B_iso_or_equiv
  _atom_site_type_symbol
  F1       1.0000 0.00021  0.00037  0.38550  Biso   1.000  F
  F2       1.0000 0.33312  0.66629  0.61457  Biso   1.000  F
  Zn1      1.0000 0.99968  0.99974  0.55453  Biso   1.000  Zn
  Zn2      1.0000 0.33366  0.66693  0.44554  Biso   1.000  Zn
