data_image0
_cell_length_a       4.19439
_cell_length_b       4.19162
_cell_length_c       18.8558
_cell_angle_alpha    90
_cell_angle_beta     90
_cell_angle_gamma    120.022

_symmetry_space_group_name_H-M    "P 1"
_symmetry_int_tables_number       1

loop_
  _symmetry_equiv_pos_as_xyz
  'x, y, z'

loop_
  _atom_site_label
  _atom_site_occupancy
  _atom_site_fract_x
  _atom_site_fract_y
  _atom_site_fract_z
  _atom_site_thermal_displace_type
  _atom_site_B_iso_or_equiv
  _atom_site_type_symbol
  I1       1.0000 0.33487  0.16628  0.35980  Biso   1.000  I
  I2       1.0000 0.99860  0.50082  0.64105  Biso   1.000  I
  Zn1      1.0000 0.66456  0.83393  0.56331  Biso   1.000  Zn
  Zn2      1.0000 0.66905  0.83315  0.43754  Biso   1.000  Zn
