data_image0
_cell_length_a       6.87402
_cell_length_b       6.87515
_cell_length_c       18.4116
_cell_angle_alpha    90
_cell_angle_beta     90
_cell_angle_gamma    119.995

_symmetry_space_group_name_H-M    "P 1"
_symmetry_int_tables_number       1

loop_
  _symmetry_equiv_pos_as_xyz
  'x, y, z'

loop_
  _atom_site_label
  _atom_site_occupancy
  _atom_site_fract_x
  _atom_site_fract_y
  _atom_site_fract_z
  _atom_site_thermal_displace_type
  _atom_site_B_iso_or_equiv
  _atom_site_type_symbol
  Zn1      1.0000 0.00002  0.00005  0.50028  Biso   1.000  Zn
  Zn2      1.0000 0.33332  0.66663  0.49972  Biso   1.000  Zn
  P1       1.0000 0.66665  0.33333  0.43826  Biso   1.000  P
  P2       1.0000 0.66669  0.33335  0.56175  Biso   1.000  P
  Te1      1.0000 0.32044  0.98791  0.40237  Biso   1.000  Te
  Te2      1.0000 0.01203  0.33249  0.40235  Biso   1.000  Te
  Te3      1.0000 0.66735  0.67944  0.40236  Biso   1.000  Te
  Te4      1.0000 0.01295  0.67873  0.59763  Biso   1.000  Te
  Te5      1.0000 0.32134  0.33427  0.59766  Biso   1.000  Te
  Te6      1.0000 0.66591  0.98720  0.59765  Biso   1.000  Te
