data_image0
_cell_length_a       6.01165
_cell_length_b       6.0127
_cell_length_c       18.4116
_cell_angle_alpha    90
_cell_angle_beta     90
_cell_angle_gamma    119.994

_symmetry_space_group_name_H-M    "P 1"
_symmetry_int_tables_number       1

loop_
  _symmetry_equiv_pos_as_xyz
  'x, y, z'

loop_
  _atom_site_label
  _atom_site_occupancy
  _atom_site_fract_x
  _atom_site_fract_y
  _atom_site_fract_z
  _atom_site_thermal_displace_type
  _atom_site_B_iso_or_equiv
  _atom_site_type_symbol
  Zn1      1.0000 0.00002  0.00002  0.50015  Biso   1.000  Zn
  Zn2      1.0000 0.33333  0.66666  0.49987  Biso   1.000  Zn
  P1       1.0000 0.66664  0.33332  0.43991  Biso   1.000  P
  P2       1.0000 0.66670  0.33336  0.56008  Biso   1.000  P
  S1       1.0000 0.33614  0.00304  0.41226  Biso   1.000  S
  S2       1.0000 0.99687  0.33307  0.41223  Biso   1.000  S
  S3       1.0000 0.66676  0.66370  0.41224  Biso   1.000  S
  S4       1.0000 0.99723  0.66358  0.58775  Biso   1.000  S
  S5       1.0000 0.33652  0.33370  0.58778  Biso   1.000  S
  S6       1.0000 0.66648  0.00294  0.58777  Biso   1.000  S
