data_image0
_cell_length_a       6.3491
_cell_length_b       6.3503
_cell_length_c       18.4116
_cell_angle_alpha    90
_cell_angle_beta     90
_cell_angle_gamma    119.994

_symmetry_space_group_name_H-M    "P 1"
_symmetry_int_tables_number       1

loop_
  _symmetry_equiv_pos_as_xyz
  'x, y, z'

loop_
  _atom_site_label
  _atom_site_occupancy
  _atom_site_fract_x
  _atom_site_fract_y
  _atom_site_fract_z
  _atom_site_thermal_displace_type
  _atom_site_B_iso_or_equiv
  _atom_site_type_symbol
  Zn1      1.0000 0.00002  0.00003  0.50017  Biso   1.000  Zn
  Zn2      1.0000 0.33332  0.66665  0.49985  Biso   1.000  Zn
  P1       1.0000 0.66664  0.33332  0.43909  Biso   1.000  P
  P2       1.0000 0.66670  0.33336  0.56090  Biso   1.000  P
  Se1      1.0000 0.32876  0.99573  0.40799  Biso   1.000  Se
  Se2      1.0000 0.00419  0.33299  0.40796  Biso   1.000  Se
  Se3      1.0000 0.66683  0.67109  0.40797  Biso   1.000  Se
  Se4      1.0000 0.00462  0.67090  0.59202  Biso   1.000  Se
  Se5      1.0000 0.32920  0.33377  0.59205  Biso   1.000  Se
  Se6      1.0000 0.66642  0.99555  0.59204  Biso   1.000  Se
