data_image0
_cell_length_a       3.92262
_cell_length_b       3.92306
_cell_length_c       18.8558
_cell_angle_alpha    90
_cell_angle_beta     90
_cell_angle_gamma    119.996

_symmetry_space_group_name_H-M    "P 1"
_symmetry_int_tables_number       1

loop_
  _symmetry_equiv_pos_as_xyz
  'x, y, z'

loop_
  _atom_site_label
  _atom_site_occupancy
  _atom_site_fract_x
  _atom_site_fract_y
  _atom_site_fract_z
  _atom_site_thermal_displace_type
  _atom_site_B_iso_or_equiv
  _atom_site_type_symbol
  S1       1.0000 0.00001  0.00003  0.41728  Biso   1.000  S
  S2       1.0000 0.33333  0.66664  0.58279  Biso   1.000  S
  Zn1      1.0000 0.99998  0.00004  0.55419  Biso   1.000  Zn
  Zn2      1.0000 0.33335  0.66662  0.44589  Biso   1.000  Zn
