data_image0
_cell_length_a       4.32935
_cell_length_b       4.33026
_cell_length_c       18.8558
_cell_angle_alpha    90
_cell_angle_beta     90
_cell_angle_gamma    119.993

_symmetry_space_group_name_H-M    "P 1"
_symmetry_int_tables_number       1

loop_
  _symmetry_equiv_pos_as_xyz
  'x, y, z'

loop_
  _atom_site_label
  _atom_site_occupancy
  _atom_site_fract_x
  _atom_site_fract_y
  _atom_site_fract_z
  _atom_site_thermal_displace_type
  _atom_site_B_iso_or_equiv
  _atom_site_type_symbol
  Te1      1.0000 0.00001  0.00004  0.40033  Biso   1.000  Te
  Te2      1.0000 0.33333  0.66663  0.59973  Biso   1.000  Te
  Zn1      1.0000 0.99999  0.00006  0.54941  Biso   1.000  Zn
  Zn2      1.0000 0.33335  0.66661  0.45067  Biso   1.000  Zn
