data_image0
_cell_length_a       6.70111
_cell_length_b       6.18477
_cell_length_c       16.5235
_cell_angle_alpha    90
_cell_angle_beta     90
_cell_angle_gamma    90

_symmetry_space_group_name_H-M    "P 1"
_symmetry_int_tables_number       1

loop_
  _symmetry_equiv_pos_as_xyz
  'x, y, z'

loop_
  _atom_site_label
  _atom_site_occupancy
  _atom_site_fract_x
  _atom_site_fract_y
  _atom_site_fract_z
  _atom_site_thermal_displace_type
  _atom_site_B_iso_or_equiv
  _atom_site_type_symbol
  Zn1      1.0000 0.50000  0.00000  0.50000  Biso   1.000  Zn
  Zn2      1.0000 1.00000  0.50000  0.50000  Biso   1.000  Zn
  Te1      1.0000 0.08336  0.12623  0.43909  Biso   1.000  Te
  Te2      1.0000 0.58336  0.37377  0.56091  Biso   1.000  Te
  Te3      1.0000 0.91664  0.87377  0.56091  Biso   1.000  Te
  Te4      1.0000 0.41664  0.62623  0.43909  Biso   1.000  Te
