data_image0
_cell_length_a       3.49449
_cell_length_b       6.49875
_cell_length_c       18.8114
_cell_angle_alpha    90
_cell_angle_beta     90
_cell_angle_gamma    90

_symmetry_space_group_name_H-M    "P 1"
_symmetry_int_tables_number       1

loop_
  _symmetry_equiv_pos_as_xyz
  'x, y, z'

loop_
  _atom_site_label
  _atom_site_occupancy
  _atom_site_fract_x
  _atom_site_fract_y
  _atom_site_fract_z
  _atom_site_thermal_displace_type
  _atom_site_B_iso_or_equiv
  _atom_site_type_symbol
  Zr1      1.0000 0.00000  0.05475  0.50243  Biso   1.000  Zr
  Br1      1.0000 0.50000  0.17087  0.60854  Biso   1.000  Br
  Br2      1.0000 0.00000  0.32913  0.39146  Biso   1.000  Br
  Zr2      1.0000 0.50000  0.44525  0.49757  Biso   1.000  Zr
  Br3      1.0000 1.00000  0.67355  0.58301  Biso   1.000  Br
  Br4      1.0000 0.50000  0.82645  0.41699  Biso   1.000  Br
