data_image0
_cell_length_a       4.30431
_cell_length_b       4.30587
_cell_length_c       18.8558
_cell_angle_alpha    90
_cell_angle_beta     90
_cell_angle_gamma    119.988

_symmetry_space_group_name_H-M    "P 1"
_symmetry_int_tables_number       1

loop_
  _symmetry_equiv_pos_as_xyz
  'x, y, z'

loop_
  _atom_site_label
  _atom_site_occupancy
  _atom_site_fract_x
  _atom_site_fract_y
  _atom_site_fract_z
  _atom_site_thermal_displace_type
  _atom_site_B_iso_or_equiv
  _atom_site_type_symbol
  Br1      1.0000 0.99998  0.00010  0.39352  Biso   1.000  Br
  Br2      1.0000 0.33335  0.66657  0.60655  Biso   1.000  Br
  Zr1      1.0000 0.00002  0.00006  0.54370  Biso   1.000  Zr
  Zr2      1.0000 0.33331  0.66661  0.45637  Biso   1.000  Zr
