data_image0
_cell_length_a       3.33422
_cell_length_b       6.22773
_cell_length_c       18.5827
_cell_angle_alpha    90
_cell_angle_beta     90
_cell_angle_gamma    90

_symmetry_space_group_name_H-M    "P 1"
_symmetry_int_tables_number       1

loop_
  _symmetry_equiv_pos_as_xyz
  'x, y, z'

loop_
  _atom_site_label
  _atom_site_occupancy
  _atom_site_fract_x
  _atom_site_fract_y
  _atom_site_fract_z
  _atom_site_thermal_displace_type
  _atom_site_B_iso_or_equiv
  _atom_site_type_symbol
  Zr1      1.0000 0.00000  0.04877  0.50247  Biso   1.000  Zr
  Cl1      1.0000 0.50000  0.17196  0.60232  Biso   1.000  Cl
  Cl2      1.0000 0.00000  0.32804  0.39768  Biso   1.000  Cl
  Zr2      1.0000 0.50000  0.45123  0.49753  Biso   1.000  Zr
  Cl3      1.0000 0.00000  0.67479  0.57917  Biso   1.000  Cl
  Cl4      1.0000 0.50000  0.82521  0.42083  Biso   1.000  Cl
