data_image0
_cell_length_a       4.18578
_cell_length_b       4.18731
_cell_length_c       18.8558
_cell_angle_alpha    90
_cell_angle_beta     90
_cell_angle_gamma    119.988

_symmetry_space_group_name_H-M    "P 1"
_symmetry_int_tables_number       1

loop_
  _symmetry_equiv_pos_as_xyz
  'x, y, z'

loop_
  _atom_site_label
  _atom_site_occupancy
  _atom_site_fract_x
  _atom_site_fract_y
  _atom_site_fract_z
  _atom_site_thermal_displace_type
  _atom_site_B_iso_or_equiv
  _atom_site_type_symbol
  Cl1      1.0000 0.99997  0.00011  0.40333  Biso   1.000  Cl
  Cl2      1.0000 0.33337  0.66655  0.59674  Biso   1.000  Cl
  Zr1      1.0000 0.00003  0.00005  0.54443  Biso   1.000  Zr
  Zr2      1.0000 0.33331  0.66662  0.45564  Biso   1.000  Zr
