data_image0
_cell_length_a       3.14785
_cell_length_b       3.14818
_cell_length_c       18.8558
_cell_angle_alpha    90
_cell_angle_beta     90
_cell_angle_gamma    119.997

_symmetry_space_group_name_H-M    "P 1"
_symmetry_int_tables_number       1

loop_
  _symmetry_equiv_pos_as_xyz
  'x, y, z'

loop_
  _atom_site_label
  _atom_site_occupancy
  _atom_site_fract_x
  _atom_site_fract_y
  _atom_site_fract_z
  _atom_site_thermal_displace_type
  _atom_site_B_iso_or_equiv
  _atom_site_type_symbol
  F1       1.0000 0.99983  0.00013  0.35923  Biso   1.000  F
  F2       1.0000 0.33350  0.66653  0.64084  Biso   1.000  F
  Zr1      1.0000 0.00004  0.00006  0.56719  Biso   1.000  Zr
  Zr2      1.0000 0.33329  0.66661  0.43289  Biso   1.000  Zr
