data_image0
_cell_length_a       4.10441
_cell_length_b       3.24737
_cell_length_c       19.7127
_cell_angle_alpha    90
_cell_angle_beta     90
_cell_angle_gamma    90

_symmetry_space_group_name_H-M    "P 1"
_symmetry_int_tables_number       1

loop_
  _symmetry_equiv_pos_as_xyz
  'x, y, z'

loop_
  _atom_site_label
  _atom_site_occupancy
  _atom_site_fract_x
  _atom_site_fract_y
  _atom_site_fract_z
  _atom_site_thermal_displace_type
  _atom_site_B_iso_or_equiv
  _atom_site_type_symbol
  Zr1      1.0000 0.63162  0.25000  0.55886  Biso   1.000  Zr
  Zr2      1.0000 0.13160  0.75000  0.44114  Biso   1.000  Zr
  O1       1.0000 0.13161  0.25000  0.51660  Biso   1.000  O
  O2       1.0000 0.63160  0.75000  0.48340  Biso   1.000  O
  O3       1.0000 0.31280  0.25001  0.38047  Biso   1.000  O
  O4       1.0000 0.45042  0.74999  0.61953  Biso   1.000  O
  O5       1.0000 0.95035  0.25001  0.38047  Biso   1.000  O
  O6       1.0000 0.81286  0.74999  0.61952  Biso   1.000  O
