data_image0
_cell_length_a       6.47605
_cell_length_b       7.11898
_cell_length_c       18.4116
_cell_angle_alpha    90
_cell_angle_beta     90
_cell_angle_gamma    117.055

_symmetry_space_group_name_H-M    "P 1"
_symmetry_int_tables_number       1

loop_
  _symmetry_equiv_pos_as_xyz
  'x, y, z'

loop_
  _atom_site_label
  _atom_site_occupancy
  _atom_site_fract_x
  _atom_site_fract_y
  _atom_site_fract_z
  _atom_site_thermal_displace_type
  _atom_site_B_iso_or_equiv
  _atom_site_type_symbol
  Zr1      1.0000 0.01090  0.98787  0.50023  Biso   1.000  Zr
  Zr2      1.0000 0.32243  0.67877  0.49976  Biso   1.000  Zr
  P1       1.0000 0.66037  0.33377  0.43921  Biso   1.000  P
  P2       1.0000 0.67297  0.33292  0.56080  Biso   1.000  P
  Se1      1.0000 0.26976  0.91510  0.40561  Biso   1.000  Se
  Se2      1.0000 0.01451  0.33929  0.41616  Biso   1.000  Se
  Se3      1.0000 0.67172  0.66622  0.41769  Biso   1.000  Se
  Se4      1.0000 0.06363  0.75156  0.59436  Biso   1.000  Se
  Se5      1.0000 0.31886  0.32746  0.58384  Biso   1.000  Se
  Se6      1.0000 0.66154  0.00044  0.58232  Biso   1.000  Se
