data_image0
_cell_length_a       6.89097
_cell_length_b       7.28558
_cell_length_c       18.892
_cell_angle_alpha    90
_cell_angle_beta     90
_cell_angle_gamma    118.224

_symmetry_space_group_name_H-M    "P 1"
_symmetry_int_tables_number       1

loop_
  _symmetry_equiv_pos_as_xyz
  'x, y, z'

loop_
  _atom_site_label
  _atom_site_occupancy
  _atom_site_fract_x
  _atom_site_fract_y
  _atom_site_fract_z
  _atom_site_thermal_displace_type
  _atom_site_B_iso_or_equiv
  _atom_site_type_symbol
  Zr1      1.0000 0.98246  0.97024  0.49535  Biso   1.000  Zr
  Zr2      1.0000 0.35086  0.69644  0.50463  Biso   1.000  Zr
  P1       1.0000 0.65440  0.31200  0.44174  Biso   1.000  P
  P2       1.0000 0.67894  0.35464  0.55823  Biso   1.000  P
  Te1      1.0000 0.27068  0.92881  0.39707  Biso   1.000  Te
  Te2      1.0000 0.02376  0.33935  0.41092  Biso   1.000  Te
  Te3      1.0000 0.64757  0.65288  0.40330  Biso   1.000  Te
  Te4      1.0000 0.06265  0.73787  0.60288  Biso   1.000  Te
  Te5      1.0000 0.30959  0.32737  0.58904  Biso   1.000  Te
  Te6      1.0000 0.68580  0.01380  0.59669  Biso   1.000  Te
