data_image0
_cell_length_a       6.25006
_cell_length_b       6.93169
_cell_length_c       18.4116
_cell_angle_alpha    90
_cell_angle_beta     90
_cell_angle_gamma    116.797

_symmetry_space_group_name_H-M    "P 1"
_symmetry_int_tables_number       1

loop_
  _symmetry_equiv_pos_as_xyz
  'x, y, z'

loop_
  _atom_site_label
  _atom_site_occupancy
  _atom_site_fract_x
  _atom_site_fract_y
  _atom_site_fract_z
  _atom_site_thermal_displace_type
  _atom_site_B_iso_or_equiv
  _atom_site_type_symbol
  Zr1      1.0000 0.01389  0.98781  0.49952  Biso   1.000  Zr
  Zr2      1.0000 0.31936  0.67881  0.50048  Biso   1.000  Zr
  P1       1.0000 0.66986  0.34373  0.43875  Biso   1.000  P
  P2       1.0000 0.66343  0.32291  0.56124  Biso   1.000  P
  S1       1.0000 0.26803  0.91118  0.41278  Biso   1.000  S
  S2       1.0000 0.01424  0.34937  0.42339  Biso   1.000  S
  S3       1.0000 0.67608  0.66131  0.42788  Biso   1.000  S
  S4       1.0000 0.06542  0.75558  0.58726  Biso   1.000  S
  S5       1.0000 0.31910  0.31732  0.57664  Biso   1.000  S
  S6       1.0000 0.65729  0.00538  0.57216  Biso   1.000  S
