data_image0
_cell_length_a       4.32549
_cell_length_b       4.32654
_cell_length_c       18.8558
_cell_angle_alpha    90
_cell_angle_beta     90
_cell_angle_gamma    119.992

_symmetry_space_group_name_H-M    "P 1"
_symmetry_int_tables_number       1

loop_
  _symmetry_equiv_pos_as_xyz
  'x, y, z'

loop_
  _atom_site_label
  _atom_site_occupancy
  _atom_site_fract_x
  _atom_site_fract_y
  _atom_site_fract_z
  _atom_site_thermal_displace_type
  _atom_site_B_iso_or_equiv
  _atom_site_type_symbol
  Se1      1.0000 0.00000  0.00007  0.40299  Biso   1.000  Se
  Se2      1.0000 0.33333  0.66660  0.59707  Biso   1.000  Se
  Zr1      1.0000 1.00000  0.00006  0.55011  Biso   1.000  Zr
  Zr2      1.0000 0.33334  0.66661  0.44997  Biso   1.000  Zr
