data_image0
_cell_length_a       5.47919
_cell_length_b       3.77444
_cell_length_c       21.2014
_cell_angle_alpha    90
_cell_angle_beta     90
_cell_angle_gamma    90

_symmetry_space_group_name_H-M    "P 1"
_symmetry_int_tables_number       1

loop_
  _symmetry_equiv_pos_as_xyz
  'x, y, z'

loop_
  _atom_site_label
  _atom_site_occupancy
  _atom_site_fract_x
  _atom_site_fract_y
  _atom_site_fract_z
  _atom_site_thermal_displace_type
  _atom_site_B_iso_or_equiv
  _atom_site_type_symbol
  Zr1      1.0000 0.63163  0.25000  0.56995  Biso   1.000  Zr
  Zr2      1.0000 0.13159  0.75000  0.43005  Biso   1.000  Zr
  Se1      1.0000 0.13164  0.25000  0.52420  Biso   1.000  Se
  Se2      1.0000 0.63158  0.75000  0.47580  Biso   1.000  Se
  Se3      1.0000 0.34829  0.25000  0.35324  Biso   1.000  Se
  Se4      1.0000 0.41493  0.75000  0.64676  Biso   1.000  Se
  Se5      1.0000 0.91463  0.25000  0.35332  Biso   1.000  Se
  Se6      1.0000 0.84859  0.75000  0.64668  Biso   1.000  Se
