data_image0
_cell_length_a       4.21302
_cell_length_b       4.21568
_cell_length_c       17.9368
_cell_angle_alpha    90
_cell_angle_beta     90
_cell_angle_gamma    90

_symmetry_space_group_name_H-M    "P 1"
_symmetry_int_tables_number       1

loop_
  _symmetry_equiv_pos_as_xyz
  'x, y, z'

loop_
  _atom_site_label
  _atom_site_occupancy
  _atom_site_fract_x
  _atom_site_fract_y
  _atom_site_fract_z
  _atom_site_thermal_displace_type
  _atom_site_B_iso_or_equiv
  _atom_site_type_symbol
  Zr1      1.0000 0.00000  0.99997  0.50001  Biso   1.000  Zr
  Se1      1.0000 0.00000  0.50047  0.60067  Biso   1.000  Se
  Zr2      1.0000 0.50000  0.49991  0.50001  Biso   1.000  Zr
  Se2      1.0000 0.00000  0.49943  0.39935  Biso   1.000  Se
