data_image0
_cell_length_a       3.57896
_cell_length_b       3.57896
_cell_length_c       20.6997
_cell_angle_alpha    90
_cell_angle_beta     90
_cell_angle_gamma    120

_symmetry_space_group_name_H-M    "P 1"
_symmetry_int_tables_number       1

loop_
  _symmetry_equiv_pos_as_xyz
  'x, y, z'

loop_
  _atom_site_label
  _atom_site_occupancy
  _atom_site_fract_x
  _atom_site_fract_y
  _atom_site_fract_z
  _atom_site_thermal_displace_type
  _atom_site_B_iso_or_equiv
  _atom_site_type_symbol
  Zr1      1.0000 0.33340  0.66672  0.57080  Biso   1.000  Zr
  S1       1.0000 0.66670  0.33335  0.36232  Biso   1.000  S
  S2       1.0000 1.00000  0.00005  0.63768  Biso   1.000  S
  Zr2      1.0000 0.33341  0.66690  0.42920  Biso   1.000  Zr
