data_image0
_cell_length_a       5.19213
_cell_length_b       3.64535
_cell_length_c       20.9019
_cell_angle_alpha    90
_cell_angle_beta     90
_cell_angle_gamma    90

_symmetry_space_group_name_H-M    "P 1"
_symmetry_int_tables_number       1

loop_
  _symmetry_equiv_pos_as_xyz
  'x, y, z'

loop_
  _atom_site_label
  _atom_site_occupancy
  _atom_site_fract_x
  _atom_site_fract_y
  _atom_site_fract_z
  _atom_site_thermal_displace_type
  _atom_site_B_iso_or_equiv
  _atom_site_type_symbol
  Zr1      1.0000 0.63163  0.25000  0.56615  Biso   1.000  Zr
  Zr2      1.0000 0.13159  0.75000  0.43385  Biso   1.000  Zr
  S1       1.0000 0.13164  0.25000  0.52338  Biso   1.000  S
  S2       1.0000 0.63158  0.75000  0.47662  Biso   1.000  S
  S3       1.0000 0.33227  0.25000  0.35871  Biso   1.000  S
  S4       1.0000 0.43095  0.75000  0.64129  Biso   1.000  S
  S5       1.0000 0.93075  0.25000  0.35874  Biso   1.000  S
  S6       1.0000 0.83247  0.75000  0.64126  Biso   1.000  S
