data_image0
_cell_length_a       5.95826
_cell_length_b       3.95294
_cell_length_c       21.7679
_cell_angle_alpha    90
_cell_angle_beta     90
_cell_angle_gamma    90

_symmetry_space_group_name_H-M    "P 1"
_symmetry_int_tables_number       1

loop_
  _symmetry_equiv_pos_as_xyz
  'x, y, z'

loop_
  _atom_site_label
  _atom_site_occupancy
  _atom_site_fract_x
  _atom_site_fract_y
  _atom_site_fract_z
  _atom_site_thermal_displace_type
  _atom_site_B_iso_or_equiv
  _atom_site_type_symbol
  Zr1      1.0000 0.63164  0.25000  0.57770  Biso   1.000  Zr
  Zr2      1.0000 0.13158  0.75000  0.42230  Biso   1.000  Zr
  Te1      1.0000 0.13164  0.25000  0.52523  Biso   1.000  Te
  Te2      1.0000 0.63158  0.75000  0.47477  Biso   1.000  Te
  Te3      1.0000 0.36892  0.25000  0.34484  Biso   1.000  Te
  Te4      1.0000 0.39430  0.75000  0.65516  Biso   1.000  Te
  Te5      1.0000 0.89403  0.25000  0.34491  Biso   1.000  Te
  Te6      1.0000 0.86919  0.75000  0.65509  Biso   1.000  Te
