data_image0
_cell_length_a       7.30776
_cell_length_b       7.32827
_cell_length_c       18.6484
_cell_angle_alpha    90
_cell_angle_beta     90
_cell_angle_gamma    119.907

_symmetry_space_group_name_H-M    "P 1"
_symmetry_int_tables_number       1

loop_
  _symmetry_equiv_pos_as_xyz
  'x, y, z'

loop_
  _atom_site_label
  _atom_site_occupancy
  _atom_site_fract_x
  _atom_site_fract_y
  _atom_site_fract_z
  _atom_site_thermal_displace_type
  _atom_site_B_iso_or_equiv
  _atom_site_type_symbol
  Zr1      1.0000 0.00040  0.99930  0.50007  Biso   1.000  Zr
  Se1      1.0000 0.33259  0.16769  0.58789  Biso   1.000  Se
  Br1      1.0000 0.33367  0.16634  0.40218  Biso   1.000  Br
  Zr2      1.0000 0.00040  0.49930  0.49993  Biso   1.000  Zr
  Br2      1.0000 0.33367  0.66634  0.59782  Biso   1.000  Br
  Se2      1.0000 0.33259  0.66769  0.41211  Biso   1.000  Se
  Zr3      1.0000 0.50040  0.99930  0.49993  Biso   1.000  Zr
  Br3      1.0000 0.83367  0.16634  0.59782  Biso   1.000  Br
  Se3      1.0000 0.83259  0.16769  0.41211  Biso   1.000  Se
  Zr4      1.0000 0.50040  0.49930  0.50007  Biso   1.000  Zr
  Se4      1.0000 0.83259  0.66769  0.58789  Biso   1.000  Se
  Br4      1.0000 0.83367  0.66634  0.40218  Biso   1.000  Br
