data_image0
_cell_length_a       7.31892
_cell_length_b       7.34485
_cell_length_c       18.6484
_cell_angle_alpha    90
_cell_angle_beta     90
_cell_angle_gamma    119.883

_symmetry_space_group_name_H-M    "P 1"
_symmetry_int_tables_number       1

loop_
  _symmetry_equiv_pos_as_xyz
  'x, y, z'

loop_
  _atom_site_label
  _atom_site_occupancy
  _atom_site_fract_x
  _atom_site_fract_y
  _atom_site_fract_z
  _atom_site_thermal_displace_type
  _atom_site_B_iso_or_equiv
  _atom_site_type_symbol
  Zr1      1.0000 0.00032  0.99922  0.50011  Biso   1.000  Zr
  Se1      1.0000 0.33219  0.16825  0.58777  Biso   1.000  Se
  Br1      1.0000 0.33416  0.16586  0.40177  Biso   1.000  Br
  Zr2      1.0000 0.00032  0.49922  0.49989  Biso   1.000  Zr
  Br2      1.0000 0.33416  0.66586  0.59823  Biso   1.000  Br
  Se2      1.0000 0.33219  0.66825  0.41223  Biso   1.000  Se
  Zr3      1.0000 0.50032  0.99922  0.49989  Biso   1.000  Zr
  Br3      1.0000 0.83416  0.16586  0.59823  Biso   1.000  Br
  Se3      1.0000 0.83219  0.16825  0.41223  Biso   1.000  Se
  Zr4      1.0000 0.50032  0.49922  0.50011  Biso   1.000  Zr
  Se4      1.0000 0.83219  0.66825  0.58777  Biso   1.000  Se
  Br4      1.0000 0.83416  0.66586  0.40177  Biso   1.000  Br
