data_image0
_cell_length_a       7.16143
_cell_length_b       7.21166
_cell_length_c       18.7583
_cell_angle_alpha    90
_cell_angle_beta     90
_cell_angle_gamma    119.77

_symmetry_space_group_name_H-M    "P 1"
_symmetry_int_tables_number       1

loop_
  _symmetry_equiv_pos_as_xyz
  'x, y, z'

loop_
  _atom_site_label
  _atom_site_occupancy
  _atom_site_fract_x
  _atom_site_fract_y
  _atom_site_fract_z
  _atom_site_thermal_displace_type
  _atom_site_B_iso_or_equiv
  _atom_site_type_symbol
  Zr1      1.0000 0.00024  0.99874  0.49991  Biso   1.000  Zr
  S1       1.0000 0.33230  0.16868  0.57787  Biso   1.000  S
  Br1      1.0000 0.33416  0.16587  0.39920  Biso   1.000  Br
  Zr2      1.0000 0.00024  0.49874  0.50009  Biso   1.000  Zr
  Br2      1.0000 0.33416  0.66587  0.60080  Biso   1.000  Br
  S2       1.0000 0.33230  0.66868  0.42213  Biso   1.000  S
  Zr3      1.0000 0.50024  0.99874  0.50009  Biso   1.000  Zr
  Br3      1.0000 0.83416  0.16587  0.60080  Biso   1.000  Br
  S3       1.0000 0.83230  0.16868  0.42213  Biso   1.000  S
  Zr4      1.0000 0.50024  0.49874  0.49991  Biso   1.000  Zr
  S4       1.0000 0.83230  0.66868  0.57787  Biso   1.000  S
  Br4      1.0000 0.83416  0.66587  0.39920  Biso   1.000  Br
