data_image0
_cell_length_a       7.16536
_cell_length_b       7.19881
_cell_length_c       18.3816
_cell_angle_alpha    90
_cell_angle_beta     90
_cell_angle_gamma    119.846

_symmetry_space_group_name_H-M    "P 1"
_symmetry_int_tables_number       1

loop_
  _symmetry_equiv_pos_as_xyz
  'x, y, z'

loop_
  _atom_site_label
  _atom_site_occupancy
  _atom_site_fract_x
  _atom_site_fract_y
  _atom_site_fract_z
  _atom_site_thermal_displace_type
  _atom_site_B_iso_or_equiv
  _atom_site_type_symbol
  Zr1      1.0000 0.00025  0.99912  0.50015  Biso   1.000  Zr
  Se1      1.0000 0.33193  0.16868  0.59198  Biso   1.000  Se
  Cl1      1.0000 0.33450  0.16551  0.41002  Biso   1.000  Cl
  Zr2      1.0000 0.00025  0.49912  0.49985  Biso   1.000  Zr
  Cl2      1.0000 0.33450  0.66551  0.58998  Biso   1.000  Cl
  Se2      1.0000 0.33193  0.66868  0.40802  Biso   1.000  Se
  Zr3      1.0000 0.50025  0.99912  0.49985  Biso   1.000  Zr
  Cl3      1.0000 0.83450  0.16551  0.58998  Biso   1.000  Cl
  Se3      1.0000 0.83193  0.16868  0.40802  Biso   1.000  Se
  Zr4      1.0000 0.50025  0.49912  0.50015  Biso   1.000  Zr
  Se4      1.0000 0.83193  0.66868  0.59198  Biso   1.000  Se
  Cl4      1.0000 0.83450  0.66551  0.41002  Biso   1.000  Cl
