data_image0
_cell_length_a       6.50201
_cell_length_b       6.61085
_cell_length_c       18.7568
_cell_angle_alpha    90
_cell_angle_beta     90
_cell_angle_gamma    119.457

_symmetry_space_group_name_H-M    "P 1"
_symmetry_int_tables_number       1

loop_
  _symmetry_equiv_pos_as_xyz
  'x, y, z'

loop_
  _atom_site_label
  _atom_site_occupancy
  _atom_site_fract_x
  _atom_site_fract_y
  _atom_site_fract_z
  _atom_site_thermal_displace_type
  _atom_site_B_iso_or_equiv
  _atom_site_type_symbol
  Zr1      1.0000 0.00523  0.99270  0.50384  Biso   1.000  Zr
  O1       1.0000 0.33240  0.16961  0.55044  Biso   1.000  O
  Cl1      1.0000 0.32905  0.17104  0.39985  Biso   1.000  Cl
  Zr2      1.0000 0.00523  0.49270  0.49616  Biso   1.000  Zr
  Cl2      1.0000 0.32905  0.67104  0.60015  Biso   1.000  Cl
  O2       1.0000 0.33240  0.66961  0.44956  Biso   1.000  O
  Zr3      1.0000 0.50523  0.99270  0.49616  Biso   1.000  Zr
  Cl3      1.0000 0.82905  0.17104  0.60015  Biso   1.000  Cl
  O3       1.0000 0.83240  0.16961  0.44956  Biso   1.000  O
  Zr4      1.0000 0.50523  0.49270  0.50384  Biso   1.000  Zr
  O4       1.0000 0.83240  0.66961  0.55044  Biso   1.000  O
  Cl4      1.0000 0.82905  0.67104  0.39985  Biso   1.000  Cl
