data_image0
_cell_length_a       7.15575
_cell_length_b       7.18519
_cell_length_c       18.3816
_cell_angle_alpha    90
_cell_angle_beta     90
_cell_angle_gamma    119.865

_symmetry_space_group_name_H-M    "P 1"
_symmetry_int_tables_number       1

loop_
  _symmetry_equiv_pos_as_xyz
  'x, y, z'

loop_
  _atom_site_label
  _atom_site_occupancy
  _atom_site_fract_x
  _atom_site_fract_y
  _atom_site_fract_z
  _atom_site_thermal_displace_type
  _atom_site_B_iso_or_equiv
  _atom_site_type_symbol
  Zr1      1.0000 0.00037  0.99915  0.50006  Biso   1.000  Zr
  Se1      1.0000 0.33212  0.16832  0.59198  Biso   1.000  Se
  Cl1      1.0000 0.33418  0.16585  0.41035  Biso   1.000  Cl
  Zr2      1.0000 0.00037  0.49915  0.49994  Biso   1.000  Zr
  Cl2      1.0000 0.33418  0.66585  0.58965  Biso   1.000  Cl
  Se2      1.0000 0.33212  0.66832  0.40802  Biso   1.000  Se
  Zr3      1.0000 0.50037  0.99915  0.49994  Biso   1.000  Zr
  Cl3      1.0000 0.83418  0.16585  0.58965  Biso   1.000  Cl
  Se3      1.0000 0.83212  0.16832  0.40802  Biso   1.000  Se
  Zr4      1.0000 0.50037  0.49915  0.50006  Biso   1.000  Zr
  Se4      1.0000 0.83212  0.66832  0.59198  Biso   1.000  Se
  Cl4      1.0000 0.83418  0.66585  0.41035  Biso   1.000  Cl
