data_image0
_cell_length_a       7.0394
_cell_length_b       7.06992
_cell_length_c       18.406
_cell_angle_alpha    90
_cell_angle_beta     90
_cell_angle_gamma    119.857

_symmetry_space_group_name_H-M    "P 1"
_symmetry_int_tables_number       1

loop_
  _symmetry_equiv_pos_as_xyz
  'x, y, z'

loop_
  _atom_site_label
  _atom_site_occupancy
  _atom_site_fract_x
  _atom_site_fract_y
  _atom_site_fract_z
  _atom_site_thermal_displace_type
  _atom_site_B_iso_or_equiv
  _atom_site_type_symbol
  Zr1      1.0000 0.00040  0.99899  0.49998  Biso   1.000  Zr
  S1       1.0000 0.33176  0.16883  0.58231  Biso   1.000  S
  Cl1      1.0000 0.33453  0.16549  0.40701  Biso   1.000  Cl
  Zr2      1.0000 0.00040  0.49899  0.50002  Biso   1.000  Zr
  Cl2      1.0000 0.33453  0.66549  0.59299  Biso   1.000  Cl
  S2       1.0000 0.33176  0.66883  0.41769  Biso   1.000  S
  Zr3      1.0000 0.50040  0.99899  0.50002  Biso   1.000  Zr
  Cl3      1.0000 0.83453  0.16549  0.59299  Biso   1.000  Cl
  S3       1.0000 0.83176  0.16883  0.41769  Biso   1.000  S
  Zr4      1.0000 0.50040  0.49899  0.49998  Biso   1.000  Zr
  S4       1.0000 0.83176  0.66883  0.58231  Biso   1.000  S
  Cl4      1.0000 0.83453  0.66549  0.40701  Biso   1.000  Cl
