data_image0
_cell_length_a       3.25182
_cell_length_b       3.25182
_cell_length_c       27.2847
_cell_angle_alpha    90
_cell_angle_beta     90
_cell_angle_gamma    120

_symmetry_space_group_name_H-M    "P 1"
_symmetry_int_tables_number       1

loop_
  _symmetry_equiv_pos_as_xyz
  'x, y, z'

loop_
  _atom_site_label
  _atom_site_occupancy
  _atom_site_fract_x
  _atom_site_fract_y
  _atom_site_fract_z
  _atom_site_thermal_displace_type
  _atom_site_B_iso_or_equiv
  _atom_site_type_symbol
  Zr1      1.0000 0.33333  0.66667  0.45021  Biso   1.000  Zr
  Zr2      1.0000 0.66667  0.33333  0.54974  Biso   1.000  Zr
  Zr3      1.0000 0.00000  0.00000  0.35877  Biso   1.000  Zr
  Zr4      1.0000 0.00000  0.00000  0.64120  Biso   1.000  Zr
  N1       1.0000 0.00000  0.00000  0.49998  Biso   1.000  N
  N2       1.0000 0.66667  0.33333  0.40296  Biso   1.000  N
  N3       1.0000 0.33333  0.66667  0.59700  Biso   1.000  N
  O1       1.0000 0.66667  0.33333  0.69086  Biso   1.000  O
  O2       1.0000 0.33333  0.66667  0.30911  Biso   1.000  O
  H1       1.0000 0.66667  0.33333  0.72677  Biso   1.000  H
  H2       1.0000 0.33333  0.66667  0.27320  Biso   1.000  H
