data_image0
_cell_length_a       6.60817
_cell_length_b       6.9151
_cell_length_c       19.5978
_cell_angle_alpha    90
_cell_angle_beta     90
_cell_angle_gamma    118.542

_symmetry_space_group_name_H-M    "P 1"
_symmetry_int_tables_number       1

loop_
  _symmetry_equiv_pos_as_xyz
  'x, y, z'

loop_
  _atom_site_label
  _atom_site_occupancy
  _atom_site_fract_x
  _atom_site_fract_y
  _atom_site_fract_z
  _atom_site_thermal_displace_type
  _atom_site_B_iso_or_equiv
  _atom_site_type_symbol
  Zr1      1.0000 0.00265  0.99078  0.50392  Biso   1.000  Zr
  O1       1.0000 0.33490  0.17104  0.54160  Biso   1.000  O
  I1       1.0000 0.32917  0.17174  0.38270  Biso   1.000  I
  Zr2      1.0000 0.00265  0.49078  0.49608  Biso   1.000  Zr
  I2       1.0000 0.32917  0.67174  0.61730  Biso   1.000  I
  O2       1.0000 0.33490  0.67104  0.45840  Biso   1.000  O
  Zr3      1.0000 0.50265  0.99078  0.49608  Biso   1.000  Zr
  I3       1.0000 0.82917  0.17174  0.61730  Biso   1.000  I
  O3       1.0000 0.83490  0.17104  0.45840  Biso   1.000  O
  Zr4      1.0000 0.50265  0.49078  0.50392  Biso   1.000  Zr
  O4       1.0000 0.83490  0.67104  0.54160  Biso   1.000  O
  I4       1.0000 0.82917  0.67174  0.38270  Biso   1.000  I
