data_image0
_cell_length_a       7.32042
_cell_length_b       7.43003
_cell_length_c       19.2051
_cell_angle_alpha    90
_cell_angle_beta     90
_cell_angle_gamma    119.513

_symmetry_space_group_name_H-M    "P 1"
_symmetry_int_tables_number       1

loop_
  _symmetry_equiv_pos_as_xyz
  'x, y, z'

loop_
  _atom_site_label
  _atom_site_occupancy
  _atom_site_fract_x
  _atom_site_fract_y
  _atom_site_fract_z
  _atom_site_thermal_displace_type
  _atom_site_B_iso_or_equiv
  _atom_site_type_symbol
  Zr1      1.0000 0.99992  0.99792  0.49987  Biso   1.000  Zr
  S1       1.0000 0.33306  0.16901  0.57202  Biso   1.000  S
  I1       1.0000 0.33366  0.16639  0.38982  Biso   1.000  I
  Zr2      1.0000 0.99992  0.49792  0.50013  Biso   1.000  Zr
  I2       1.0000 0.33366  0.66639  0.61018  Biso   1.000  I
  S2       1.0000 0.33306  0.66901  0.42798  Biso   1.000  S
  Zr3      1.0000 0.49992  0.99792  0.50013  Biso   1.000  Zr
  I3       1.0000 0.83366  0.16639  0.61018  Biso   1.000  I
  S3       1.0000 0.83306  0.16901  0.42798  Biso   1.000  S
  Zr4      1.0000 0.49992  0.49792  0.49987  Biso   1.000  Zr
  S4       1.0000 0.83306  0.66901  0.57202  Biso   1.000  S
  I4       1.0000 0.83366  0.66639  0.38982  Biso   1.000  I
