data_image0
_cell_length_a       7.3044
_cell_length_b       7.43885
_cell_length_c       19.2051
_cell_angle_alpha    90
_cell_angle_beta     90
_cell_angle_gamma    119.404

_symmetry_space_group_name_H-M    "P 1"
_symmetry_int_tables_number       1

loop_
  _symmetry_equiv_pos_as_xyz
  'x, y, z'

loop_
  _atom_site_label
  _atom_site_occupancy
  _atom_site_fract_x
  _atom_site_fract_y
  _atom_site_fract_z
  _atom_site_thermal_displace_type
  _atom_site_B_iso_or_equiv
  _atom_site_type_symbol
  Zr1      1.0000 0.00124  0.99675  0.50130  Biso   1.000  Zr
  S1       1.0000 0.33269  0.16902  0.57212  Biso   1.000  S
  I1       1.0000 0.33271  0.16755  0.39052  Biso   1.000  I
  Zr2      1.0000 0.00124  0.49675  0.49870  Biso   1.000  Zr
  I2       1.0000 0.33271  0.66755  0.60948  Biso   1.000  I
  S2       1.0000 0.33269  0.66902  0.42788  Biso   1.000  S
  Zr3      1.0000 0.50124  0.99675  0.49870  Biso   1.000  Zr
  I3       1.0000 0.83271  0.16755  0.60948  Biso   1.000  I
  S3       1.0000 0.83269  0.16902  0.42788  Biso   1.000  S
  Zr4      1.0000 0.50124  0.49675  0.50130  Biso   1.000  Zr
  S4       1.0000 0.83269  0.66902  0.57212  Biso   1.000  S
  I4       1.0000 0.83271  0.66755  0.39052  Biso   1.000  I
