data_image0
_cell_length_a       7.50693
_cell_length_b       7.56926
_cell_length_c       19.0856
_cell_angle_alpha    90
_cell_angle_beta     90
_cell_angle_gamma    119.728

_symmetry_space_group_name_H-M    "P 1"
_symmetry_int_tables_number       1

loop_
  _symmetry_equiv_pos_as_xyz
  'x, y, z'

loop_
  _atom_site_label
  _atom_site_occupancy
  _atom_site_fract_x
  _atom_site_fract_y
  _atom_site_fract_z
  _atom_site_thermal_displace_type
  _atom_site_B_iso_or_equiv
  _atom_site_type_symbol
  Zr1      1.0000 0.00027  0.99871  0.50004  Biso   1.000  Zr
  Se1      1.0000 0.33276  0.16817  0.58178  Biso   1.000  Se
  I1       1.0000 0.33366  0.16643  0.39242  Biso   1.000  I
  Zr2      1.0000 0.00027  0.49871  0.49996  Biso   1.000  Zr
  I2       1.0000 0.33366  0.66643  0.60758  Biso   1.000  I
  Se2      1.0000 0.33276  0.66817  0.41822  Biso   1.000  Se
  Zr3      1.0000 0.50027  0.99871  0.49996  Biso   1.000  Zr
  I3       1.0000 0.83366  0.16643  0.60758  Biso   1.000  I
  Se3      1.0000 0.83276  0.16817  0.41822  Biso   1.000  Se
  Zr4      1.0000 0.50027  0.49871  0.50004  Biso   1.000  Zr
  Se4      1.0000 0.83276  0.66817  0.58178  Biso   1.000  Se
  I4       1.0000 0.83366  0.66643  0.39242  Biso   1.000  I
