data_image0
_cell_length_a       7.49889
_cell_length_b       7.55931
_cell_length_c       19.0856
_cell_angle_alpha    90
_cell_angle_beta     90
_cell_angle_gamma    119.736

_symmetry_space_group_name_H-M    "P 1"
_symmetry_int_tables_number       1

loop_
  _symmetry_equiv_pos_as_xyz
  'x, y, z'

loop_
  _atom_site_label
  _atom_site_occupancy
  _atom_site_fract_x
  _atom_site_fract_y
  _atom_site_fract_z
  _atom_site_thermal_displace_type
  _atom_site_B_iso_or_equiv
  _atom_site_type_symbol
  Zr1      1.0000 0.00048  0.99867  0.50008  Biso   1.000  Zr
  Se1      1.0000 0.33296  0.16770  0.58195  Biso   1.000  Se
  I1       1.0000 0.33323  0.16694  0.39297  Biso   1.000  I
  Zr2      1.0000 0.00048  0.49867  0.49992  Biso   1.000  Zr
  I2       1.0000 0.33323  0.66694  0.60703  Biso   1.000  I
  Se2      1.0000 0.33296  0.66770  0.41805  Biso   1.000  Se
  Zr3      1.0000 0.50048  0.99867  0.49992  Biso   1.000  Zr
  I3       1.0000 0.83323  0.16694  0.60703  Biso   1.000  I
  Se3      1.0000 0.83296  0.16770  0.41805  Biso   1.000  Se
  Zr4      1.0000 0.50048  0.49867  0.50008  Biso   1.000  Zr
  Se4      1.0000 0.83296  0.66770  0.58195  Biso   1.000  Se
  I4       1.0000 0.83323  0.66694  0.39297  Biso   1.000  I
